<?xml version="1.0" encoding="UTF-8"?>

<!-- generated on 2026-05-07 12:08:44.154369 by randomTrips.py UNKNOWN
<configuration>
    <net-file value="assets/sumo/city.net.xml"/>
    <route-file value="assets/sumo/city.rou.xml"/>
    <vehicle-class value="passenger"/>
    <fringe-factor value="10"/>
    <validate value="True"/>
    <end value="10000.0"/>
    <period value="0.5"/>
</configuration>
-->

<!-- generated on 2026-05-07 12:08:43 by Eclipse SUMO duarouter Version 1.20.0
<configuration xmlns:xsi="http://www.w3.org/2001/XMLSchema-instance" xsi:noNamespaceSchemaLocation="http://sumo.dlr.de/xsd/duarouterConfiguration.xsd">

    <input>
        <net-file value="assets/sumo/city.net.xml"/>
        <route-files value="trips.trips.xml"/>
    </input>

    <output>
        <output-file value="assets/sumo/city.rou.xml"/>
        <alternatives-output value="NUL"/>
    </output>

    <time>
        <begin value="0"/>
        <end value="10000.0"/>
    </time>

    <report>
        <no-warnings value="true"/>
        <ignore-errors value="true"/>
        <no-step-log value="true"/>
    </report>

</configuration>
-->

<routes xmlns:xsi="http://www.w3.org/2001/XMLSchema-instance" xsi:noNamespaceSchemaLocation="http://sumo.dlr.de/xsd/routes_file.xsd">
    <vType id="passenger" vClass="passenger"/>
    <vehicle id="0" type="passenger" depart="0.00">
        <route edges="left5A5 A5A4 A4A3 A3A2 A2A1 A1A0 A0bottom0"/>
    </vehicle>
    <vehicle id="1" type="passenger" depart="0.50">
        <route edges="E4E5 E5D5 D5C5 C5B5 B5A5 A5left5"/>
    </vehicle>
    <vehicle id="2" type="passenger" depart="1.00">
        <route edges="right2F2 F2E2 E2E3 E3D3"/>
    </vehicle>
    <vehicle id="3" type="passenger" depart="1.50">
        <route edges="top2C5 C5C4 C4C3 C3C2 C2C1 C1B1 B1A1 A1left1"/>
    </vehicle>
    <vehicle id="4" type="passenger" depart="2.00">
        <route edges="bottom3D0 D0C0 C0B0 B0A0 A0bottom0"/>
    </vehicle>
    <vehicle id="5" type="passenger" depart="2.50">
        <route edges="D4E4 E4E3 E3E2 E2E1 E1E0 E0D0 D0D1"/>
    </vehicle>
    <vehicle id="6" type="passenger" depart="3.00">
        <route edges="A3A4 A4left4"/>
    </vehicle>
    <vehicle id="7" type="passenger" depart="3.50">
        <route edges="left5A5 A5B5 B5C5 C5C4 C4C3 C3C2 C2C1 C1D1 D1E1"/>
    </vehicle>
    <vehicle id="8" type="passenger" depart="4.00">
        <route edges="D5C5 C5D5 D5top3"/>
    </vehicle>
    <vehicle id="9" type="passenger" depart="4.50">
        <route edges="right5F5 F5E5 E5D5 D5C5 C5B5 B5A5 A5A4 A4A3 A3A2 A2A1 A1A0 A0bottom0"/>
    </vehicle>
    <vehicle id="10" type="passenger" depart="5.00">
        <route edges="right5F5 F5E5 E5D5"/>
    </vehicle>
    <vehicle id="11" type="passenger" depart="5.50">
        <route edges="bottom0A0 A0A1 A1A2 A2A3 A3left3"/>
    </vehicle>
    <vehicle id="12" type="passenger" depart="6.00">
        <route edges="top4E5 E5E4 E4D4 D4C4 C4B4 B4A4"/>
    </vehicle>
    <vehicle id="13" type="passenger" depart="6.50">
        <route edges="B4B5 B5B4 B4B3 B3B2 B2B1 B1A1 A1left1"/>
    </vehicle>
    <vehicle id="14" type="passenger" depart="7.00">
        <route edges="top0A5 A5B5 B5C5 C5D5 D5top3"/>
    </vehicle>
    <vehicle id="15" type="passenger" depart="7.50">
        <route edges="right5F5 F5E5 E5top4"/>
    </vehicle>
    <vehicle id="16" type="passenger" depart="8.00">
        <route edges="left1A1 A1B1 B1C1 C1D1 D1E1 E1F1 F1F2 F2F3 F3F4 F4F5 F5top5"/>
    </vehicle>
    <vehicle id="17" type="passenger" depart="8.50">
        <route edges="bottom1B0 B0B1 B1B2 B2C2 C2D2 D2D1"/>
    </vehicle>
    <vehicle id="18" type="passenger" depart="9.00">
        <route edges="right5F5 F5F4 F4F3 F3F2 F2F1 F1F0 F0E0 E0D0"/>
    </vehicle>
    <vehicle id="19" type="passenger" depart="9.50">
        <route edges="top1B5 B5C5 C5D5 D5D4 D4D5"/>
    </vehicle>
    <vehicle id="20" type="passenger" depart="10.00">
        <route edges="right1F1 F1F0 F0E0 E0D0 D0C0 C0B0 B0A0 A0left0"/>
    </vehicle>
    <vehicle id="21" type="passenger" depart="10.50">
        <route edges="E0D0 D0C0 C0B0 B0bottom1"/>
    </vehicle>
    <vehicle id="22" type="passenger" depart="11.00">
        <route edges="B3B2 B2A2 A2A3 A3A4 A4A5 A5left5"/>
    </vehicle>
    <vehicle id="23" type="passenger" depart="11.50">
        <route edges="B5B4 B4B3 B3B2 B2B1 B1B0 B0bottom1"/>
    </vehicle>
    <vehicle id="24" type="passenger" depart="12.00">
        <route edges="left4A4 A4B4 B4B5 B5top1"/>
    </vehicle>
    <vehicle id="25" type="passenger" depart="12.50">
        <route edges="bottom1B0 B0A0 A0A1 A1A2 A2A3 A3A4 A4A5 A5B5"/>
    </vehicle>
    <vehicle id="26" type="passenger" depart="13.00">
        <route edges="E3F3 F3F4 F4right4"/>
    </vehicle>
    <vehicle id="27" type="passenger" depart="13.50">
        <route edges="left5A5 A5B5 B5C5 C5D5 D5top3"/>
    </vehicle>
    <vehicle id="28" type="passenger" depart="14.00">
        <route edges="D0D1 D1D2 D2D3 D3D4 D4D5 D5E5 E5top4"/>
    </vehicle>
    <vehicle id="29" type="passenger" depart="14.50">
        <route edges="C5C4 C4B4 B4B5 B5top1"/>
    </vehicle>
    <vehicle id="30" type="passenger" depart="15.00">
        <route edges="top5F5 F5F4 F4E4 E4E3 E3E2 E2E1 E1E0 E0bottom4"/>
    </vehicle>
    <vehicle id="31" type="passenger" depart="15.50">
        <route edges="left2A2 A2A3 A3B3 B3C3 C3D3 D3E3 E3F3"/>
    </vehicle>
    <vehicle id="32" type="passenger" depart="16.00">
        <route edges="top0A5 A5A4 A4A3 A3A2 A2A1 A1A0 A0B0 B0C0 C0D0 D0E0 E0F0 F0right0"/>
    </vehicle>
    <vehicle id="33" type="passenger" depart="16.50">
        <route edges="E0D0 D0C0 C0B0 B0A0 A0bottom0"/>
    </vehicle>
    <vehicle id="34" type="passenger" depart="17.00">
        <route edges="F3F2 F2F1 F1F0 F0E0 E0D0 D0C0 C0B0 B0A0"/>
    </vehicle>
    <vehicle id="35" type="passenger" depart="17.50">
        <route edges="D4C4 C4C5 C5D5 D5E5 E5F5 F5F4"/>
    </vehicle>
    <vehicle id="36" type="passenger" depart="18.00">
        <route edges="top1B5 B5B4 B4B3 B3B2 B2A2"/>
    </vehicle>
    <vehicle id="37" type="passenger" depart="18.50">
        <route edges="left5A5 A5B5 B5C5 C5C4 C4C3 C3C2 C2C1 C1C0 C0bottom2"/>
    </vehicle>
    <vehicle id="38" type="passenger" depart="19.00">
        <route edges="top2C5 C5C4 C4C5"/>
    </vehicle>
    <vehicle id="39" type="passenger" depart="19.50">
        <route edges="E3E4 E4E5 E5D5 D5C5 C5B5 B5A5 A5top0"/>
    </vehicle>
    <vehicle id="40" type="passenger" depart="20.00">
        <route edges="left2A2 A2A3 A3A4 A4A5 A5top0"/>
    </vehicle>
    <vehicle id="41" type="passenger" depart="20.50">
        <route edges="left3A3 A3B3 B3C3 C3D3 D3E3 E3F3 F3right3"/>
    </vehicle>
    <vehicle id="42" type="passenger" depart="21.00">
        <route edges="bottom2C0 C0C1 C1C2 C2C3 C3C4 C4C5 C5B5 B5A5 A5left5"/>
    </vehicle>
    <vehicle id="43" type="passenger" depart="21.50">
        <route edges="top5F5 F5E5 E5D5 D5D4 D4D3 D3D2 D2D1 D1D0 D0bottom3"/>
    </vehicle>
    <vehicle id="44" type="passenger" depart="22.00">
        <route edges="B4B3 B3B2 B2B1 B1B0 B0A0 A0left0"/>
    </vehicle>
    <vehicle id="45" type="passenger" depart="22.50">
        <route edges="C0C1 C1D1 D1E1 E1E0 E0bottom4"/>
    </vehicle>
    <vehicle id="46" type="passenger" depart="23.00">
        <route edges="right4F4 F4F3 F3F2 F2F1 F1E1 E1D1 D1C1 C1B1"/>
    </vehicle>
    <vehicle id="47" type="passenger" depart="23.50">
        <route edges="B1C1 C1B1 B1B2 B2B3 B3B4 B4B5 B5top1"/>
    </vehicle>
    <vehicle id="48" type="passenger" depart="24.00">
        <route edges="top5F5 F5E5 E5D5 D5D4 D4D3 D3D2 D2D1 D1D0 D0bottom3"/>
    </vehicle>
    <vehicle id="49" type="passenger" depart="24.50">
        <route edges="top4E5 E5E4 E4E3 E3E2 E2F2 F2right2"/>
    </vehicle>
    <vehicle id="50" type="passenger" depart="25.00">
        <route edges="A1B1 B1C1 C1D1 D1E1 E1E2 E2E3 E3E4 E4E5 E5top4"/>
    </vehicle>
    <vehicle id="51" type="passenger" depart="25.50">
        <route edges="right0F0 F0E0 E0E1 E1D1 D1C1"/>
    </vehicle>
    <vehicle id="52" type="passenger" depart="26.00">
        <route edges="E3F3 F3F2 F2E2 E2E1 E1E0 E0bottom4"/>
    </vehicle>
    <vehicle id="53" type="passenger" depart="26.50">
        <route edges="C0D0 D0C0 C0C1 C1C2 C2C1"/>
    </vehicle>
    <vehicle id="54" type="passenger" depart="27.00">
        <route edges="bottom4E0 E0E1 E1E2 E2E3 E3E4 E4E5 E5F5 F5right5"/>
    </vehicle>
    <vehicle id="55" type="passenger" depart="27.50">
        <route edges="top1B5 B5A5 A5top0"/>
    </vehicle>
    <vehicle id="56" type="passenger" depart="28.00">
        <route edges="left0A0 A0A1 A1A2 A2A3 A3A4 A4left4"/>
    </vehicle>
    <vehicle id="57" type="passenger" depart="28.50">
        <route edges="top2C5 C5D5 D5E5 E5F5 F5F4 F4F3 F3F2"/>
    </vehicle>
    <vehicle id="58" type="passenger" depart="29.00">
        <route edges="F1F0 F0E0 E0bottom4"/>
    </vehicle>
    <vehicle id="59" type="passenger" depart="29.50">
        <route edges="left3A3 A3left3"/>
    </vehicle>
    <vehicle id="60" type="passenger" depart="30.00">
        <route edges="right3F3 F3E3 E3D3 D3D2 D2D1 D1D0"/>
    </vehicle>
    <vehicle id="61" type="passenger" depart="30.50">
        <route edges="right4F4 F4E4 E4D4 D4D3 D3D2 D2D1 D1D0 D0bottom3"/>
    </vehicle>
    <vehicle id="62" type="passenger" depart="31.00">
        <route edges="A0A1 A1A2 A2B2 B2C2"/>
    </vehicle>
    <vehicle id="63" type="passenger" depart="31.50">
        <route edges="A2B2 B2C2 C2C3 C3C4 C4D4 D4E4 E4F4 F4right4"/>
    </vehicle>
    <vehicle id="64" type="passenger" depart="32.00">
        <route edges="top1B5 B5C5 C5D5 D5E5 E5F5 F5F4 F4F3 F3F2 F2E2"/>
    </vehicle>
    <vehicle id="65" type="passenger" depart="32.50">
        <route edges="F2F1 F1F0 F0E0 E0D0 D0C0 C0B0 B0A0 A0left0"/>
    </vehicle>
    <vehicle id="66" type="passenger" depart="33.00">
        <route edges="top1B5 B5C5 C5D5 D5E5 E5F5 F5right5"/>
    </vehicle>
    <vehicle id="67" type="passenger" depart="33.50">
        <route edges="B3C3 C3C4 C4C5 C5top2"/>
    </vehicle>
    <vehicle id="68" type="passenger" depart="34.00">
        <route edges="B2B1 B1B0 B0C0 C0D0 D0E0 E0F0 F0bottom5"/>
    </vehicle>
    <vehicle id="69" type="passenger" depart="34.50">
        <route edges="right3F3 F3F2 F2E2 E2D2 D2C2 C2B2 B2A2 A2left2"/>
    </vehicle>
    <vehicle id="70" type="passenger" depart="35.00">
        <route edges="bottom5F0 F0F1 F1F2 F2E2 E2D2 D2C2"/>
    </vehicle>
    <vehicle id="71" type="passenger" depart="35.50">
        <route edges="E3E4 E4F4 F4F3 F3F4"/>
    </vehicle>
    <vehicle id="72" type="passenger" depart="36.00">
        <route edges="bottom3D0 D0D1 D1D2 D2D3 D3D4 D4D5 D5C5 C5B5 B5A5 A5left5"/>
    </vehicle>
    <vehicle id="73" type="passenger" depart="36.50">
        <route edges="left1A1 A1B1 B1C1 C1D1 D1E1 E1E2 E2E3 E3E4 E4E5 E5top4"/>
    </vehicle>
    <vehicle id="74" type="passenger" depart="37.00">
        <route edges="D3D2 D2D1 D1C1 C1B1 B1C1"/>
    </vehicle>
    <vehicle id="75" type="passenger" depart="37.50">
        <route edges="top5F5 F5F4 F4E4 E4E3 E3E2 E2E1 E1E0 E0bottom4"/>
    </vehicle>
    <vehicle id="76" type="passenger" depart="38.00">
        <route edges="bottom3D0 D0bottom3"/>
    </vehicle>
    <vehicle id="77" type="passenger" depart="38.50">
        <route edges="C1C2 C2C3 C3C4 C4C5 C5B5 B5A5 A5left5"/>
    </vehicle>
    <vehicle id="78" type="passenger" depart="39.00">
        <route edges="bottom0A0 A0A1 A1A2 A2A3 A3A4 A4A5 A5B5 B5C5 C5D5 D5E5"/>
    </vehicle>
    <vehicle id="79" type="passenger" depart="39.50">
        <route edges="E0D0 D0C0 C0B0 B0A0 A0A1 A1A2 A2A3 A3A4 A4A5 A5left5"/>
    </vehicle>
    <vehicle id="80" type="passenger" depart="40.00">
        <route edges="B2B3 B3C3 C3D3 D3E3 E3E2 E2E1 E1E0 E0bottom4"/>
    </vehicle>
    <vehicle id="81" type="passenger" depart="40.50">
        <route edges="E0D0 D0D1 D1D2 D2D3 D3D4 D4E4 E4F4 F4E4"/>
    </vehicle>
    <vehicle id="82" type="passenger" depart="41.00">
        <route edges="top0A5 A5A4 A4A3 A3A2 A2A1 A1left1"/>
    </vehicle>
    <vehicle id="83" type="passenger" depart="41.50">
        <route edges="E1D1 D1D2 D2E2 E2E1"/>
    </vehicle>
    <vehicle id="84" type="passenger" depart="42.00">
        <route edges="D4D5 D5D4 D4D3 D3D2 D2C2 C2B2 B2A2 A2left2"/>
    </vehicle>
    <vehicle id="85" type="passenger" depart="42.50">
        <route edges="top3D5 D5D4 D4C4"/>
    </vehicle>
    <vehicle id="86" type="passenger" depart="43.00">
        <route edges="bottom5F0 F0right0"/>
    </vehicle>
    <vehicle id="87" type="passenger" depart="43.50">
        <route edges="right5F5 F5F4 F4E4 E4D4 D4C4 C4B4 B4A4 A4left4"/>
    </vehicle>
    <vehicle id="88" type="passenger" depart="44.00">
        <route edges="B4C4 C4C3 C3C2 C2B2"/>
    </vehicle>
    <vehicle id="89" type="passenger" depart="44.50">
        <route edges="bottom3D0 D0C0 C0C1 C1C2 C2C3 C3C4 C4C5 C5C4"/>
    </vehicle>
    <vehicle id="90" type="passenger" depart="45.00">
        <route edges="right2F2 F2E2 E2F2"/>
    </vehicle>
    <vehicle id="91" type="passenger" depart="45.50">
        <route edges="top5F5 F5F4 F4F3 F3E3 E3D3 D3C3 C3B3 B3A3 A3A2 A2A1"/>
    </vehicle>
    <vehicle id="92" type="passenger" depart="46.00">
        <route edges="bottom2C0 C0B0 B0B1 B1B2 B2B3 B3B4 B4B3"/>
    </vehicle>
    <vehicle id="93" type="passenger" depart="46.50">
        <route edges="top1B5 B5A5 A5top0"/>
    </vehicle>
    <vehicle id="94" type="passenger" depart="47.00">
        <route edges="D2D1 D1C1 C1C2 C2C3 C3C4"/>
    </vehicle>
    <vehicle id="95" type="passenger" depart="47.50">
        <route edges="bottom3D0 D0C0 C0B0 B0bottom1"/>
    </vehicle>
    <vehicle id="96" type="passenger" depart="48.00">
        <route edges="E2D2 D2D3 D3D4 D4E4 E4F4 F4right4"/>
    </vehicle>
    <vehicle id="97" type="passenger" depart="48.50">
        <route edges="bottom3D0 D0D1 D1D2 D2E2 E2F2 F2right2"/>
    </vehicle>
    <vehicle id="98" type="passenger" depart="49.00">
        <route edges="left1A1 A1A0 A0left0"/>
    </vehicle>
    <vehicle id="99" type="passenger" depart="49.50">
        <route edges="top5F5 F5F4 F4F3 F3F2 F2F1"/>
    </vehicle>
    <vehicle id="100" type="passenger" depart="50.00">
        <route edges="top4E5 E5E4 E4F4 F4right4"/>
    </vehicle>
    <vehicle id="101" type="passenger" depart="50.50">
        <route edges="top0A5 A5A4 A4A3 A3left3"/>
    </vehicle>
    <vehicle id="102" type="passenger" depart="51.00">
        <route edges="bottom5F0 F0F1 F1F2 F2F3 F3F4 F4F5 F5E5 E5D5 D5C5 C5B5 B5A5 A5left5"/>
    </vehicle>
    <vehicle id="103" type="passenger" depart="51.50">
        <route edges="bottom2C0 C0B0 B0A0 A0left0"/>
    </vehicle>
    <vehicle id="104" type="passenger" depart="52.00">
        <route edges="bottom1B0 B0B1 B1B2 B2C2 C2D2 D2E2 E2F2 F2F3 F3F4 F4F5 F5top5"/>
    </vehicle>
    <vehicle id="105" type="passenger" depart="52.50">
        <route edges="E3E4 E4F4 F4F3 F3F2 F2F1 F1F0 F0right0"/>
    </vehicle>
    <vehicle id="106" type="passenger" depart="53.00">
        <route edges="bottom4E0 E0D0 D0C0 C0C1 C1C0"/>
    </vehicle>
    <vehicle id="107" type="passenger" depart="53.50">
        <route edges="top4E5 E5F5 F5top5"/>
    </vehicle>
    <vehicle id="108" type="passenger" depart="54.00">
        <route edges="left2A2 A2B2 B2C2 C2D2 D2E2 E2E3 E3E4 E4E5 E5top4"/>
    </vehicle>
    <vehicle id="109" type="passenger" depart="54.50">
        <route edges="C4C5 C5C4 C4C3 C3C2 C2C1 C1C0 C0B0 B0bottom1"/>
    </vehicle>
    <vehicle id="110" type="passenger" depart="55.00">
        <route edges="top4E5 E5E4 E4D4 D4E4"/>
    </vehicle>
    <vehicle id="111" type="passenger" depart="55.50">
        <route edges="left1A1 A1B1 B1C1 C1D1 D1E1 E1F1 F1F0 F0bottom5"/>
    </vehicle>
    <vehicle id="112" type="passenger" depart="56.00">
        <route edges="B1B0 B0B1 B1B2 B2B3 B3B4 B4B5 B5C5 C5D5 D5D4"/>
    </vehicle>
    <vehicle id="113" type="passenger" depart="56.50">
        <route edges="left0A0 A0A1 A1A2 A2B2 B2C2 C2D2 D2E2 E2F2 F2right2"/>
    </vehicle>
    <vehicle id="114" type="passenger" depart="57.00">
        <route edges="C4D4 D4E4 E4E5 E5F5 F5right5"/>
    </vehicle>
    <vehicle id="115" type="passenger" depart="57.50">
        <route edges="B3B2 B2A2 A2A3 A3A4 A4left4"/>
    </vehicle>
    <vehicle id="116" type="passenger" depart="58.00">
        <route edges="left3A3 A3B3 B3C3 C3D3 D3E3 E3D3"/>
    </vehicle>
    <vehicle id="117" type="passenger" depart="58.50">
        <route edges="E0F0 F0E0 E0D0 D0C0 C0B0 B0A0 A0A1 A1A2 A2left2"/>
    </vehicle>
    <vehicle id="118" type="passenger" depart="59.00">
        <route edges="top2C5 C5B5 B5A5 A5top0"/>
    </vehicle>
    <vehicle id="119" type="passenger" depart="59.50">
        <route edges="left3A3 A3B3 B3C3 C3D3 D3E3 E3E2 E2E1 E1E0 E0D0"/>
    </vehicle>
    <vehicle id="120" type="passenger" depart="60.00">
        <route edges="bottom3D0 D0D1 D1D2 D2D3 D3D4 D4D5 D5D4"/>
    </vehicle>
    <vehicle id="121" type="passenger" depart="60.50">
        <route edges="left0A0 A0A1 A1A2 A2A3 A3A4 A4B4 B4C4 C4D4 D4E4 E4F4 F4right4"/>
    </vehicle>
    <vehicle id="122" type="passenger" depart="61.00">
        <route edges="D3D4 D4D5 D5E5 E5top4"/>
    </vehicle>
    <vehicle id="123" type="passenger" depart="61.50">
        <route edges="E1D1 D1C1 C1C0 C0bottom2"/>
    </vehicle>
    <vehicle id="124" type="passenger" depart="62.00">
        <route edges="right0F0 F0E0 E0D0 D0C0 C0B0 B0bottom1"/>
    </vehicle>
    <vehicle id="125" type="passenger" depart="62.50">
        <route edges="F3F2 F2F1 F1F0 F0bottom5"/>
    </vehicle>
    <vehicle id="126" type="passenger" depart="63.00">
        <route edges="B2C2 C2C3 C3C4 C4C3"/>
    </vehicle>
    <vehicle id="127" type="passenger" depart="63.50">
        <route edges="top5F5 F5top5"/>
    </vehicle>
    <vehicle id="128" type="passenger" depart="64.00">
        <route edges="B2C2 C2B2 B2A2 A2A3 A3A4 A4A5 A5left5"/>
    </vehicle>
    <vehicle id="129" type="passenger" depart="64.50">
        <route edges="E3E4 E4F4 F4right4"/>
    </vehicle>
    <vehicle id="130" type="passenger" depart="65.00">
        <route edges="top1B5 B5B4 B4B3 B3C3 C3D3 D3E3 E3F3 F3right3"/>
    </vehicle>
    <vehicle id="131" type="passenger" depart="65.50">
        <route edges="bottom1B0 B0B1 B1B2 B2B3 B3A3 A3left3"/>
    </vehicle>
    <vehicle id="132" type="passenger" depart="66.00">
        <route edges="top0A5 A5B5 B5C5 C5D5 D5E5 E5F5"/>
    </vehicle>
    <vehicle id="133" type="passenger" depart="66.50">
        <route edges="left4A4 A4B4 B4C4 C4D4 D4E4 E4F4 F4F5 F5top5"/>
    </vehicle>
    <vehicle id="134" type="passenger" depart="67.00">
        <route edges="left5A5 A5A4 A4A3 A3A2 A2A1 A1A0 A0bottom0"/>
    </vehicle>
    <vehicle id="135" type="passenger" depart="67.50">
        <route edges="right5F5 F5E5 E5D5 D5C5 C5B5 B5B4 B4B3 B3B2 B2B1 B1B0 B0bottom1"/>
    </vehicle>
    <vehicle id="136" type="passenger" depart="68.00">
        <route edges="left5A5 A5B5 B5C5 C5D5 D5E5 E5F5 F5E5"/>
    </vehicle>
    <vehicle id="137" type="passenger" depart="68.50">
        <route edges="C2D2 D2C2 C2B2 B2A2 A2left2"/>
    </vehicle>
    <vehicle id="138" type="passenger" depart="69.00">
        <route edges="C0B0 B0B1 B1B2 B2C2 C2D2 D2D3"/>
    </vehicle>
    <vehicle id="139" type="passenger" depart="69.50">
        <route edges="E4E3 E3D3 D3D4 D4D5 D5top3"/>
    </vehicle>
    <vehicle id="140" type="passenger" depart="70.00">
        <route edges="right1F1 F1E1 E1D1 D1D2 D2D3 D3D4 D4C4 C4B4 B4A4 A4left4"/>
    </vehicle>
    <vehicle id="141" type="passenger" depart="70.50">
        <route edges="left4A4 A4A5 A5top0"/>
    </vehicle>
    <vehicle id="142" type="passenger" depart="71.00">
        <route edges="bottom5F0 F0F1 F1F2 F2F3 F3F4 F4E4"/>
    </vehicle>
    <vehicle id="143" type="passenger" depart="71.50">
        <route edges="top0A5 A5A4 A4A3 A3A2 A2A1 A1left1"/>
    </vehicle>
    <vehicle id="144" type="passenger" depart="72.00">
        <route edges="bottom3D0 D0C0 C0B0 B0bottom1"/>
    </vehicle>
    <vehicle id="145" type="passenger" depart="72.50">
        <route edges="A0B0 B0C0 C0D0 D0E0 E0F0 F0right0"/>
    </vehicle>
    <vehicle id="146" type="passenger" depart="73.00">
        <route edges="left4A4 A4A5 A5top0"/>
    </vehicle>
    <vehicle id="147" type="passenger" depart="73.50">
        <route edges="right2F2 F2E2 E2D2 D2D1"/>
    </vehicle>
    <vehicle id="148" type="passenger" depart="74.00">
        <route edges="bottom3D0 D0C0 C0B0 B0A0 A0bottom0"/>
    </vehicle>
    <vehicle id="149" type="passenger" depart="74.50">
        <route edges="B3A3 A3B3 B3C3 C3D3 D3E3 E3F3 F3right3"/>
    </vehicle>
    <vehicle id="150" type="passenger" depart="75.00">
        <route edges="top2C5 C5C4 C4C3 C3C2 C2C1 C1D1 D1E1"/>
    </vehicle>
    <vehicle id="151" type="passenger" depart="75.50">
        <route edges="top0A5 A5B5 B5C5 C5D5 D5C5"/>
    </vehicle>
    <vehicle id="152" type="passenger" depart="76.00">
        <route edges="C4B4 B4A4 A4A3 A3A2 A2left2"/>
    </vehicle>
    <vehicle id="153" type="passenger" depart="76.50">
        <route edges="F2F1 F1F2 F2F3 F3right3"/>
    </vehicle>
    <vehicle id="154" type="passenger" depart="77.00">
        <route edges="right4F4 F4F3 F3F2 F2right2"/>
    </vehicle>
    <vehicle id="155" type="passenger" depart="77.50">
        <route edges="top2C5 C5B5 B5A5 A5B5"/>
    </vehicle>
    <vehicle id="156" type="passenger" depart="78.00">
        <route edges="E2D2 D2C2 C2B2 B2A2 A2B2"/>
    </vehicle>
    <vehicle id="157" type="passenger" depart="78.50">
        <route edges="right4F4 F4F3 F3right3"/>
    </vehicle>
    <vehicle id="158" type="passenger" depart="79.00">
        <route edges="bottom2C0 C0D0 D0E0 E0E1"/>
    </vehicle>
    <vehicle id="159" type="passenger" depart="79.50">
        <route edges="C4C5 C5D5 D5D4 D4E4 E4F4 F4right4"/>
    </vehicle>
    <vehicle id="160" type="passenger" depart="80.00">
        <route edges="top1B5 B5C5 C5D5 D5E5 E5F5 F5top5"/>
    </vehicle>
    <vehicle id="161" type="passenger" depart="80.50">
        <route edges="right5F5 F5F4 F4F3 F3right3"/>
    </vehicle>
    <vehicle id="162" type="passenger" depart="81.00">
        <route edges="A3A2 A2A1 A1B1 B1C1 C1D1 D1E1 E1F1 F1F0 F0F1"/>
    </vehicle>
    <vehicle id="163" type="passenger" depart="81.50">
        <route edges="F5F4 F4right4"/>
    </vehicle>
    <vehicle id="164" type="passenger" depart="82.00">
        <route edges="right4F4 F4F3 F3F2 F2right2"/>
    </vehicle>
    <vehicle id="165" type="passenger" depart="82.50">
        <route edges="right5F5 F5F4 F4F3 F3F2 F2F1 F1F0 F0E0 E0D0 D0C0 C0B0 B0A0"/>
    </vehicle>
    <vehicle id="166" type="passenger" depart="83.00">
        <route edges="right4F4 F4F3 F3F2 F2E2 E2D2 D2C2 C2B2 B2A2 A2left2"/>
    </vehicle>
    <vehicle id="167" type="passenger" depart="83.50">
        <route edges="top1B5 B5B4 B4B3 B3B2 B2C2 C2D2 D2E2 E2F2 F2right2"/>
    </vehicle>
    <vehicle id="168" type="passenger" depart="84.00">
        <route edges="D5D4 D4D3 D3D2 D2D1 D1E1 E1F1 F1right1"/>
    </vehicle>
    <vehicle id="169" type="passenger" depart="84.50">
        <route edges="bottom4E0 E0E1 E1D1 D1C1 C1B1 B1A1"/>
    </vehicle>
    <vehicle id="170" type="passenger" depart="85.00">
        <route edges="right4F4 F4E4 E4E5 E5D5 D5C5 C5B5 B5A5 A5left5"/>
    </vehicle>
    <vehicle id="171" type="passenger" depart="85.50">
        <route edges="A3A2 A2A3 A3A4 A4left4"/>
    </vehicle>
    <vehicle id="172" type="passenger" depart="86.00">
        <route edges="F5E5 E5F5 F5F4 F4F3 F3F2 F2right2"/>
    </vehicle>
    <vehicle id="173" type="passenger" depart="86.50">
        <route edges="top4E5 E5E4 E4E3 E3D3 D3C3 C3B3 B3B2 B2B1 B1B0 B0bottom1"/>
    </vehicle>
    <vehicle id="174" type="passenger" depart="87.00">
        <route edges="left5A5 A5B5 B5C5 C5C4 C4C3 C3C2 C2C1 C1C0 C0bottom2"/>
    </vehicle>
    <vehicle id="175" type="passenger" depart="87.50">
        <route edges="top5F5 F5F4 F4F3 F3F2 F2F1 F1E1 E1D1 D1C1"/>
    </vehicle>
    <vehicle id="176" type="passenger" depart="88.00">
        <route edges="top3D5 D5D4 D4D3 D3D2 D2C2 C2B2 B2A2 A2left2"/>
    </vehicle>
    <vehicle id="177" type="passenger" depart="88.50">
        <route edges="top4E5 E5E4 E4D4 D4C4 C4B4 B4A4 A4left4"/>
    </vehicle>
    <vehicle id="178" type="passenger" depart="89.00">
        <route edges="top4E5 E5D5 D5C5 C5B5 B5A5 A5top0"/>
    </vehicle>
    <vehicle id="179" type="passenger" depart="89.50">
        <route edges="C0C1 C1C2 C2C1"/>
    </vehicle>
    <vehicle id="180" type="passenger" depart="90.00">
        <route edges="right2F2 F2F1 F1E1 E1D1 D1C1 C1B1 B1C1"/>
    </vehicle>
    <vehicle id="181" type="passenger" depart="90.50">
        <route edges="left3A3 A3B3 B3C3 C3D3 D3D2 D2D1 D1D0 D0bottom3"/>
    </vehicle>
    <vehicle id="182" type="passenger" depart="91.00">
        <route edges="bottom1B0 B0C0 C0D0 D0D1 D1D2 D2D3 D3D4 D4D5"/>
    </vehicle>
    <vehicle id="183" type="passenger" depart="91.50">
        <route edges="E2E3 E3E4 E4E5 E5top4"/>
    </vehicle>
    <vehicle id="184" type="passenger" depart="92.00">
        <route edges="A0A1 A1A2 A2A3 A3A4 A4B4 B4C4 C4D4 D4E4 E4F4 F4right4"/>
    </vehicle>
    <vehicle id="185" type="passenger" depart="92.50">
        <route edges="left1A1 A1B1 B1C1 C1D1 D1E1 E1E2 E2E3 E3E4 E4E5 E5top4"/>
    </vehicle>
    <vehicle id="186" type="passenger" depart="93.00">
        <route edges="right2F2 F2E2 E2E3"/>
    </vehicle>
    <vehicle id="187" type="passenger" depart="93.50">
        <route edges="bottom1B0 B0B1 B1A1 A1left1"/>
    </vehicle>
    <vehicle id="188" type="passenger" depart="94.00">
        <route edges="left5A5 A5B5 B5B4 B4B3 B3B2"/>
    </vehicle>
    <vehicle id="189" type="passenger" depart="94.50">
        <route edges="F3F2 F2right2"/>
    </vehicle>
    <vehicle id="190" type="passenger" depart="95.00">
        <route edges="right1F1 F1E1 E1D1 D1C1 C1B1 B1B0 B0bottom1"/>
    </vehicle>
    <vehicle id="191" type="passenger" depart="95.50">
        <route edges="F2F3 F3F2 F2F1 F1F0 F0E0 E0D0 D0C0 C0bottom2"/>
    </vehicle>
    <vehicle id="192" type="passenger" depart="96.00">
        <route edges="bottom2C0 C0B0 B0bottom1"/>
    </vehicle>
    <vehicle id="193" type="passenger" depart="96.50">
        <route edges="C2B2 B2C2 C2C1 C1B1"/>
    </vehicle>
    <vehicle id="194" type="passenger" depart="97.00">
        <route edges="top3D5 D5E5 E5E4 E4E3 E3D3"/>
    </vehicle>
    <vehicle id="195" type="passenger" depart="97.50">
        <route edges="top2C5 C5D5 D5top3"/>
    </vehicle>
    <vehicle id="196" type="passenger" depart="98.00">
        <route edges="F1F2 F2E2 E2D2 D2C2"/>
    </vehicle>
    <vehicle id="197" type="passenger" depart="98.50">
        <route edges="A0A1 A1B1 B1B0 B0bottom1"/>
    </vehicle>
    <vehicle id="198" type="passenger" depart="99.00">
        <route edges="bottom3D0 D0D1 D1D2 D2D3 D3D4 D4E4"/>
    </vehicle>
    <vehicle id="199" type="passenger" depart="99.50">
        <route edges="left5A5 A5B5 B5C5 C5B5"/>
    </vehicle>
    <vehicle id="200" type="passenger" depart="100.00">
        <route edges="bottom3D0 D0D1 D1D2 D2D3 D3D4 D4D5 D5C5 C5B5 B5A5 A5left5"/>
    </vehicle>
    <vehicle id="201" type="passenger" depart="100.50">
        <route edges="bottom5F0 F0F1 F1F2 F2F3 F3right3"/>
    </vehicle>
    <vehicle id="202" type="passenger" depart="101.00">
        <route edges="right4F4 F4E4 E4D4 D4C4 C4B4 B4A4 A4A3"/>
    </vehicle>
    <vehicle id="203" type="passenger" depart="101.50">
        <route edges="B3C3 C3D3 D3D2 D2D1 D1D0 D0bottom3"/>
    </vehicle>
    <vehicle id="204" type="passenger" depart="102.00">
        <route edges="left4A4 A4B4 B4B3 B3C3"/>
    </vehicle>
    <vehicle id="205" type="passenger" depart="102.50">
        <route edges="right5F5 F5F4 F4F3 F3F2 F2F1 F1F0 F0bottom5"/>
    </vehicle>
    <vehicle id="206" type="passenger" depart="103.00">
        <route edges="right0F0 F0E0 E0D0 D0D1 D1D2 D2D3 D3D4 D4D5 D5C5 C5B5 B5A5 A5left5"/>
    </vehicle>
    <vehicle id="207" type="passenger" depart="103.50">
        <route edges="D3C3 C3B3 B3A3 A3A2 A2A1 A1A0 A0bottom0"/>
    </vehicle>
    <vehicle id="208" type="passenger" depart="104.00">
        <route edges="E1F1 F1E1 E1D1 D1C1 C1C2 C2C3 C3C4 C4C5 C5top2"/>
    </vehicle>
    <vehicle id="209" type="passenger" depart="104.50">
        <route edges="top0A5 A5A4 A4A3 A3A2 A2A1 A1left1"/>
    </vehicle>
    <vehicle id="210" type="passenger" depart="105.00">
        <route edges="bottom2C0 C0D0 D0E0 E0bottom4"/>
    </vehicle>
    <vehicle id="211" type="passenger" depart="105.50">
        <route edges="D2D3 D3D4 D4E4 E4F4"/>
    </vehicle>
    <vehicle id="212" type="passenger" depart="106.00">
        <route edges="bottom5F0 F0E0 E0D0 D0C0 C0B0 B0A0 A0A1 A1A2 A2A3 A3A4 A4A5 A5top0"/>
    </vehicle>
    <vehicle id="213" type="passenger" depart="106.50">
        <route edges="left5A5 A5A4 A4A3 A3A2 A2A1 A1A0 A0B0"/>
    </vehicle>
    <vehicle id="214" type="passenger" depart="107.00">
        <route edges="right3F3 F3F2 F2F1 F1F0 F0right0"/>
    </vehicle>
    <vehicle id="215" type="passenger" depart="107.50">
        <route edges="C0B0 B0B1 B1C1 C1C2"/>
    </vehicle>
    <vehicle id="216" type="passenger" depart="108.00">
        <route edges="D1C1 C1C2 C2C3 C3C4 C4C5 C5D5 D5E5 E5F5 F5right5"/>
    </vehicle>
    <vehicle id="217" type="passenger" depart="108.50">
        <route edges="left0A0 A0left0"/>
    </vehicle>
    <vehicle id="218" type="passenger" depart="109.00">
        <route edges="E2D2 D2E2 E2F2 F2right2"/>
    </vehicle>
    <vehicle id="219" type="passenger" depart="109.50">
        <route edges="bottom4E0 E0E1 E1F1 F1F2"/>
    </vehicle>
    <vehicle id="220" type="passenger" depart="110.00">
        <route edges="right0F0 F0F1 F1F2 F2F3 F3F4 F4F5 F5top5"/>