<configuration>
    <input>
        <net-file value="city.net.xml"/>
        <route-files value="city.rou.xml"/>
    </input>
    <time>
        <begin value="0"/>
        <end value="10000"/>
    </time>
    <report>
        <no-step-log value="true"/>
    </report>
    <gui_only>
        <gui-settings-file value="settings.xml"/>
    </gui_only>
</configuration>