<?xml version="1.0" encoding="UTF-8"?>
<routes xmlns:xsi="http://www.w3.org/2001/XMLSchema-instance" xsi:noNamespaceSchemaLocation="http://sumo.dlr.de/xsd/routes_file.xsd">

    <!-- Vehicle Types -->
    <vType id="car" accel="2.0" decel="4.5" sigma="0.5" length="5" minGap="2.5" maxSpeed="13.9" guiShape="passenger"/>
    <vType id="bus" accel="1.0" decel="4.0" sigma="0.5" length="10" minGap="3" maxSpeed="11.1" color="1,0,0"/>
    <vType id="truck" accel="1.0" decel="4.0" sigma="0.5" length="12" minGap="3" maxSpeed="11.1" color="0,0,1"/>

    <!-- Urban Routes -->
    <route id="urban_1" edges="ue0 ue1 ue2 te0 te1 he0 he1 he2"/>
    <route id="urban_2" edges="ue3 ue4 ue5 te0 te1 he0 he1 he2"/>

    <!-- Highway Routes -->
    <route id="highway_1" edges="he0 he1 he2"/>
    <route id="highway_2" edges="he2 he1 he0"/>

    <!-- Vehicles -->
    <vehicle id="car_0" type="car" route="urban_1" depart="0"/>
    <vehicle id="car_1" type="car" route="urban_2" depart="5"/>
    <vehicle id="bus_0" type="bus" route="urban_1" depart="10"/>
    <vehicle id="truck_0" type="truck" route="highway_1" depart="20"/>
    <vehicle id="car_2" type="car" route="highway_2" depart="30"/>

</routes>
