<?xml version="1.0" encoding="UTF-8"?>

<!-- generated on 2025-11-08 07:34:09.628380 by osmWebWizard.py UNKNOWN
<configuration>
    <net-file value="/Users/aaryankhanna/Sumo/2025-11-08-07-34-01/osm.net.xml.gz"/>
    <output-trip-file value="/Users/aaryankhanna/Sumo/2025-11-08-07-34-01/osm.bus.trips.xml"/>
    <route-file value="/Users/aaryankhanna/Sumo/2025-11-08-07-34-01/osm.bus.rou.xml"/>
    <prefix value="bus"/>
    <trip-attributes value="departLane=&quot;best&quot;"/>
    <fringe-start-attributes value="departSpeed=&quot;max&quot;"/>
    <vehicle-class value="bus"/>
    <fringe-factor value="5"/>
    <edge-permission value="bus"/>
    <via-edge-types value="highway.motorway,highway.motorway_link,highway.trunk_link,highway.primary_link,highway.secondary_link,highway.tertiary_link"/>
    <min-distance value="600.0"/>
    <min-distance.fringe value="10.0"/>
    <remove-loops value="True"/>
    <insertion-density value="15.0"/>
</configuration>
-->

<routes xmlns:xsi="http://www.w3.org/2001/XMLSchema-instance" xsi:noNamespaceSchemaLocation="http://sumo.dlr.de/xsd/routes_file.xsd">
    <vType id="bus_bus" vClass="bus"/>
    <trip id="bus0" depart="0.00" from="1430799043" to="-1175561461#0" departLane="best" type="bus_bus" departSpeed="max"/>
    <trip id="bus1" depart="1.91" from="-377007973" to="-474538040#0" departLane="best" type="bus_bus" departSpeed="max"/>
    <trip id="bus2" depart="3.81" from="22857295#1" to="183252908#0" departLane="best" type="bus_bus"/>
    <trip id="bus3" depart="5.72" from="72879621#2" to="-1341763350" departLane="best" type="bus_bus"/>
    <trip id="bus4" depart="7.62" from="-214785799#1" to="1237198320#2" departLane="best" type="bus_bus"/>
    <trip id="bus5" depart="9.53" from="438525563" to="202565713#1" departLane="best" type="bus_bus" departSpeed="max"/>
    <trip id="bus6" depart="11.43" from="-72878022#0" to="-214785820" departLane="best" type="bus_bus"/>
    <trip id="bus7" depart="13.34" from="788344770" to="-788380132#0" departLane="best" type="bus_bus" departSpeed="max"/>
    <trip id="bus8" depart="15.25" from="-1303402612#1" to="-1430799043" departLane="best" type="bus_bus" departSpeed="max"/>
    <trip id="bus9" depart="17.15" from="697909110" to="1411449768" departLane="best" type="bus_bus"/>
    <trip id="bus10" depart="19.06" from="1189160883" to="788838088#1" departLane="best" type="bus_bus"/>
    <trip id="bus11" depart="20.96" from="-73030423#4" to="1303417314" departLane="best" type="bus_bus"/>
    <trip id="bus12" depart="22.87" from="49552654#2" to="151829697#6" departLane="best" type="bus_bus"/>
    <trip id="bus13" depart="24.77" from="72878023#4" to="1331527648" departLane="best" type="bus_bus"/>
    <trip id="bus14" depart="26.68" from="183286146" to="-1285481595" departLane="best" type="bus_bus" departSpeed="max"/>
    <trip id="bus15" depart="28.59" from="-214785856" to="-73030447#2" departLane="best" type="bus_bus" departSpeed="max"/>
    <trip id="bus16" depart="30.49" from="-1236029503#0" to="-692013725" departLane="best" type="bus_bus"/>
    <trip id="bus17" depart="32.40" from="1422060540#0" to="1090902264" departLane="best" type="bus_bus"/>
    <trip id="bus18" depart="34.30" from="-72879621#4" to="-424021746" departLane="best" type="bus_bus"/>
    <trip id="bus19" depart="36.21" from="-377007961" to="73037234#1" departLane="best" type="bus_bus" departSpeed="max"/>
    <trip id="bus20" depart="38.12" from="151829684#0" to="1430799042#1" departLane="best" type="bus_bus" departSpeed="max"/>
    <trip id="bus21" depart="40.02" from="-180849295#2" to="22857444#0" departLane="best" type="bus_bus"/>
    <trip id="bus22" depart="41.93" from="-169205165#2" to="1120331189#4" departLane="best" type="bus_bus"/>
    <trip id="bus23" depart="43.83" from="988982698#5" to="180849330#0" departLane="best" type="bus_bus"/>
    <trip id="bus24" depart="45.74" from="1252345992" to="183286143#3" departLane="best" type="bus_bus"/>
    <trip id="bus25" depart="47.64" from="685945404" to="377007977#1" departLane="best" type="bus_bus"/>
    <trip id="bus26" depart="49.55" from="-476215614" to="-72879143#0" departLane="best" type="bus_bus" departSpeed="max"/>
    <trip id="bus27" depart="51.46" from="-183255903" to="73048153#3" departLane="best" type="bus_bus" departSpeed="max"/>
    <trip id="bus28" depart="53.36" from="72878708#1" to="-73048152" departLane="best" type="bus_bus"/>
    <trip id="bus29" depart="55.27" from="169204559#4" to="1124062594#1" departLane="best" type="bus_bus"/>
    <trip id="bus30" depart="57.17" from="-377007957#0" to="-72878023#0" departLane="best" type="bus_bus"/>
    <trip id="bus31" depart="59.08" from="125337464#4" to="-72878888#0" departLane="best" type="bus_bus"/>
    <trip id="bus32" depart="60.98" from="-73032689#1" to="-438522296" departLane="best" type="bus_bus"/>
    <trip id="bus33" depart="62.89" from="-1189623924" to="1120331190#1" departLane="best" type="bus_bus" departSpeed="max"/>
    <trip id="bus34" depart="64.80" from="992712217" to="1285481593" departLane="best" type="bus_bus" departSpeed="max"/>
    <trip id="bus35" depart="66.70" from="83337263#2" to="72878022#0" departLane="best" type="bus_bus"/>
    <trip id="bus36" depart="68.61" from="-1111772023" to="214785862#1" departLane="best" type="bus_bus" departSpeed="max"/>
    <trip id="bus37" depart="70.51" from="181613140#7" to="1303402612#1" departLane="best" type="bus_bus"/>
    <trip id="bus38" depart="72.42" from="-377007961" to="180849330#2" departLane="best" type="bus_bus" departSpeed="max"/>
    <trip id="bus39" depart="74.32" from="-131876116#0" to="1170572262#1" departLane="best" type="bus_bus"/>
    <trip id="bus40" depart="76.23" from="1090898710#1" to="788344777#1" departLane="best" type="bus_bus"/>
    <trip id="bus41" depart="78.14" from="1142049707#1" to="-22857746#1" departLane="best" type="bus_bus"/>
    <trip id="bus42" depart="80.04" from="-438525554" to="180849322#2" departLane="best" type="bus_bus" departSpeed="max"/>
    <trip id="bus43" depart="81.95" from="257802531" to="1303405060" departLane="best" type="bus_bus" departSpeed="max"/>
    <trip id="bus44" depart="83.85" from="377007953#5" to="1303395851" departLane="best" type="bus_bus"/>
    <trip id="bus45" depart="85.76" from="-1123427073" to="73032691#0" departLane="best" type="bus_bus" departSpeed="max"/>
    <trip id="bus46" depart="87.67" from="72878713#3" to="570946690#4" departLane="best" type="bus_bus"/>
    <trip id="bus47" depart="89.57" from="-473493077#1" to="-1303406355" departLane="best" type="bus_bus" departSpeed="max"/>
    <trip id="bus48" depart="91.48" from="72878713#2" to="73048714#1" departLane="best" type="bus_bus"/>
    <trip id="bus49" depart="93.38" from="-1285481595" to="1190753155" departLane="best" type="bus_bus"/>
    <trip id="bus50" depart="95.29" from="257802533#0" to="-181613140#7" departLane="best" type="bus_bus"/>
    <trip id="bus51" depart="97.19" from="1124062592" to="1303407346" departLane="best" type="bus_bus"/>
    <trip id="bus52" depart="99.10" from="-377007957#0" to="72878027#5" departLane="best" type="bus_bus"/>
    <trip id="bus53" depart="101.01" from="1190310784" to="22857444#1" departLane="best" type="bus_bus" departSpeed="max"/>
    <trip id="bus54" depart="102.91" from="-183248164" to="-73032857#3" departLane="best" type="bus_bus" departSpeed="max"/>
    <trip id="bus55" depart="104.82" from="-936564432" to="1258637582#3" departLane="best" type="bus_bus" departSpeed="max"/>
    <trip id="bus56" depart="106.72" from="-1330595689" to="-474538040#0" departLane="best" type="bus_bus" departSpeed="max"/>
    <trip id="bus57" depart="108.63" from="-214785856" to="-438525559#0" departLane="best" type="bus_bus" departSpeed="max"/>
    <trip id="bus58" depart="110.53" from="-214785856" to="73030423#1" departLane="best" type="bus_bus" departSpeed="max"/>
    <trip id="bus59" depart="112.44" from="72878023#12" to="-1330596410#1" departLane="best" type="bus_bus"/>
    <trip id="bus60" depart="114.35" from="-22857295#1" to="183248162#2" departLane="best" type="bus_bus"/>
    <trip id="bus61" depart="116.25" from="-183688259" to="-181613172" departLane="best" type="bus_bus" departSpeed="max"/>
    <trip id="bus62" depart="118.16" from="73037236" to="1330603589" departLane="best" type="bus_bus"/>
    <trip id="bus63" depart="120.06" from="1124062590#2" to="39227990#2" departLane="best" type="bus_bus"/>
    <trip id="bus64" depart="121.97" from="438525563" to="-377007953#0" departLane="best" type="bus_bus" departSpeed="max"/>
    <trip id="bus65" depart="123.87" from="-1303405061" to="1154189820#1" departLane="best" type="bus_bus" departSpeed="max"/>
    <trip id="bus66" depart="125.78" from="988680592" to="-1430799043" departLane="best" type="bus_bus"/>
    <trip id="bus67" depart="127.69" from="-73032692#2" to="-788838088#1" departLane="best" type="bus_bus"/>
    <trip id="bus68" depart="129.59" from="-22857746#2" to="73032196#1" departLane="best" type="bus_bus"/>
    <trip id="bus69" depart="131.50" from="-988982707" to="72878022#1" departLane="best" type="bus_bus"/>
    <trip id="bus70" depart="133.40" from="1236044649#4" to="-1303405063" departLane="best" type="bus_bus"/>
    <trip id="bus71" depart="135.31" from="992712231#2" to="570946691#6" departLane="best" type="bus_bus"/>
    <trip id="bus72" depart="137.21" from="788838089" to="73032198#4" departLane="best" type="bus_bus"/>
    <trip id="bus73" depart="139.12" from="697913241" to="-22857381#0" departLane="best" type="bus_bus" departSpeed="max"/>
    <trip id="bus74" depart="141.03" from="1124062596#5" to="-437935590" departLane="best" type="bus_bus"/>
    <trip id="bus75" depart="142.93" from="-73032691#2" to="-1303407342#0" departLane="best" type="bus_bus"/>
    <trip id="bus76" depart="144.84" from="-73030423#5" to="936564432" departLane="best" type="bus_bus"/>
    <trip id="bus77" depart="146.74" from="-377007957#0" to="39227990#1" departLane="best" type="bus_bus"/>
    <trip id="bus78" depart="148.65" from="788344770" to="988982698#6" departLane="best" type="bus_bus" departSpeed="max"/>
    <trip id="bus79" depart="150.56" from="-145259482#3" to="-73030702#6" departLane="best" type="bus_bus"/>
    <trip id="bus80" depart="152.46" from="788838088#1" to="1334174226#1" departLane="best" type="bus_bus"/>
    <trip id="bus81" depart="154.37" from="119866178#0" to="255387123#2" departLane="best" type="bus_bus"/>
    <trip id="bus82" depart="156.27" from="-1189622123" to="1341763346#0" departLane="best" type="bus_bus" departSpeed="max"/>
    <trip id="bus83" depart="158.18" from="1142118519" to="697909109" departLane="best" type="bus_bus"/>
    <trip id="bus84" depart="160.08" from="-22857230" to="-180849322#2" departLane="best" type="bus_bus" departSpeed="max"/>
    <trip id="bus85" depart="161.99" from="1303407343#2" to="151829697#8" departLane="best" type="bus_bus"/>
    <trip id="bus86" depart="163.90" from="1175246061#2" to="73032858#3" departLane="best" type="bus_bus"/>
    <trip id="bus87" depart="165.80" from="-183252725#1" to="214785853#1" departLane="best" type="bus_bus"/>
    <trip id="bus88" depart="167.71" from="-22857308#1" to="1124062594#1" departLane="best" type="bus_bus"/>
    <trip id="bus89" depart="169.61" from="180849315#1" to="-73031456#1" departLane="best" type="bus_bus"/>
    <trip id="bus90" depart="171.52" from="-119746298" to="1186765029" departLane="best" type="bus_bus"/>
    <trip id="bus91" depart="173.42" from="992712231#0" to="988982708#0" departLane="best" type="bus_bus"/>
    <trip id="bus92" depart="175.33" from="-119866178#0" to="-437935586" departLane="best" type="bus_bus"/>
    <trip id="bus93" depart="177.24" from="-377007957#0" to="73032857#3" departLane="best" type="bus_bus"/>
    <trip id="bus94" depart="179.14" from="570946690#0" to="202565742#9" departLane="best" type="bus_bus" departSpeed="max"/>
    <trip id="bus95" depart="181.05" from="1334174227#1" to="938638199#1" departLane="best" type="bus_bus"/>
    <trip id="bus96" depart="182.95" from="169204559#1" to="-1120331190#1" departLane="best" type="bus_bus"/>
    <trip id="bus97" depart="184.86" from="439786102#4" to="-73031456#0" departLane="best" type="bus_bus"/>
    <trip id="bus98" depart="186.76" from="169205165#6" to="73037896#2" departLane="best" type="bus_bus"/>
    <trip id="bus99" depart="188.67" from="-1334174227#3" to="-180849295#0" departLane="best" type="bus_bus"/>
    <trip id="bus100" depart="190.58" from="1411123738#2" to="-72878890#2" departLane="best" type="bus_bus"/>
    <trip id="bus101" depart="192.48" from="1124983203#0" to="73030423#1" departLane="best" type="bus_bus" departSpeed="max"/>
    <trip id="bus102" depart="194.39" from="697691070" to="-1342404738#1" departLane="best" type="bus_bus" departSpeed="max"/>
    <trip id="bus103" depart="196.29" from="22857381#1" to="1303408691#1" departLane="best" type="bus_bus"/>
    <trip id="bus104" depart="198.20" from="-119866180#3" to="72878884#1" departLane="best" type="bus_bus"/>
    <trip id="bus105" depart="200.11" from="73030424#0" to="1303407342#1" departLane="best" type="bus_bus"/>
    <trip id="bus106" depart="202.01" from="570946690#0" to="1334174911#1" departLane="best" type="bus_bus" departSpeed="max"/>
    <trip id="bus107" depart="203.92" from="-1411449768" to="-181613140#6" departLane="best" type="bus_bus" departSpeed="max"/>
    <trip id="bus108" depart="205.82" from="-473493132" to="72879628#2" departLane="best" type="bus_bus"/>
    <trip id="bus109" depart="207.73" from="424021749" to="72878022#0" departLane="best" type="bus_bus"/>
    <trip id="bus110" depart="209.63" from="72881199#0" to="-424021746" departLane="best" type="bus_bus"/>
    <trip id="bus111" depart="211.54" from="-22857746#1" to="-169204559#3" departLane="best" type="bus_bus"/>
    <trip id="bus112" depart="213.45" from="377007953#8" to="72878886#0" departLane="best" type="bus_bus"/>
    <trip id="bus113" depart="215.35" from="-73032858#3" to="169204559#2" departLane="best" type="bus_bus" departSpeed="max"/>
    <trip id="bus114" depart="217.26" from="-145259482#2" to="73032691#1" departLane="best" type="bus_bus"/>
    <trip id="bus115" depart="219.16" from="72878025#0" to="83337263#3" departLane="best" type="bus_bus"/>
    <trip id="bus116" depart="221.07" from="439786086#10" to="72878713#1" departLane="best" type="bus_bus"/>
    <trip id="bus117" depart="222.97" from="-1124062590#4" to="22857665#5" departLane="best" type="bus_bus" departSpeed="max"/>
    <trip id="bus118" depart="224.88" from="-697909109" to="73032692#0" departLane="best" type="bus_bus" departSpeed="max"/>
    <trip id="bus119" depart="226.79" from="439786086#10" to="-72879141#2" departLane="best" type="bus_bus"/>
    <trip id="bus120" depart="228.69" from="-214785839" to="473493077#1" departLane="best" type="bus_bus" departSpeed="max"/>
    <trip id="bus121" depart="230.60" from="1116461611" to="-73032200#0" departLane="best" type="bus_bus"/>
    <trip id="bus122" depart="232.50" from="-1124062590#4" to="-377007953#2" departLane="best" type="bus_bus" departSpeed="max"/>
    <trip id="bus123" depart="234.41" from="144385871#1" to="1124062595#6" departLane="best" type="bus_bus"/>
    <trip id="bus124" depart="236.31" from="940618572" to="1303402612#1" departLane="best" type="bus_bus"/>
    <trip id="bus125" depart="238.22" from="73048152" to="-180849295#0" departLane="best" type="bus_bus" departSpeed="max"/>
    <trip id="bus126" depart="240.13" from="-1303419084" to="1170572262#1" departLane="best" type="bus_bus"/>
    <trip id="bus127" depart="242.03" from="1330604095" to="125337464#4" departLane="best" type="bus_bus"/>
    <trip id="bus128" depart="243.94" from="-73030447#3" to="1331527648" departLane="best" type="bus_bus"/>
    <trip id="bus129" depart="245.84" from="-1082914485" to="73032198#3" departLane="best" type="bus_bus" departSpeed="max"/>
    <trip id="bus130" depart="247.75" from="22857444#0" to="183248164" departLane="best" type="bus_bus"/>
    <trip id="bus131" depart="249.65" from="-72879144#0" to="-1324970653#1" departLane="best" type="bus_bus"/>
    <trip id="bus132" depart="251.56" from="180849292#0" to="-788344772#0" departLane="best" type="bus_bus"/>
    <trip id="bus133" depart="253.47" from="-476215462" to="692013725" departLane="best" type="bus_bus" departSpeed="max"/>
    <trip id="bus134" depart="255.37" from="-476051977#0" to="1124952218" departLane="best" type="bus_bus"/>
    <trip id="bus135" depart="257.28" from="-73032692#1" to="-73030702#4" departLane="best" type="bus_bus"/>
    <trip id="bus136" depart="259.18" from="-1330603589" to="1142095291" departLane="best" type="bus_bus" departSpeed="max"/>
    <trip id="bus137" depart="261.09" from="73030423#4" to="151829684#3" departLane="best" type="bus_bus"/>
    <trip id="bus138" depart="263.00" from="-1065780894" to="-73030425#3" departLane="best" type="bus_bus"/>
    <trip id="bus139" depart="264.90" from="-788752295#0" to="1334174227#1" departLane="best" type="bus_bus"/>
    <trip id="bus140" depart="266.81" from="169204559#2" to="1188585297#2" departLane="best" type="bus_bus"/>
    <trip id="bus141" depart="268.71" from="-940668369#0" to="-437935587" departLane="best" type="bus_bus"/>
    <trip id="bus142" depart="270.62" from="1124062590#3" to="72879992#2" departLane="best" type="bus_bus"/>
    <trip id="bus143" depart="272.52" from="424021749" to="-22857463" departLane="best" type="bus_bus"/>
    <trip id="bus144" depart="274.43" from="-125337460" to="1258637581#2" departLane="best" type="bus_bus"/>
    <trip id="bus145" depart="276.34" from="180849322#2" to="-474538040#0" departLane="best" type="bus_bus"/>
    <trip id="bus146" depart="278.24" from="-22857490" to="1189623328" departLane="best" type="bus_bus" departSpeed="max"/>
    <trip id="bus147" depart="280.15" from="697913241" to="-1330610372" departLane="best" type="bus_bus" departSpeed="max"/>
    <trip id="bus148" depart="282.05" from="1124983205" to="-72878020#0" departLane="best" type="bus_bus" departSpeed="max"/>
    <trip id="bus149" depart="283.96" from="169204559#5" to="-1107006912#0" departLane="best" type="bus_bus"/>
    <trip id="bus150" depart="285.86" from="-1303408691#0" to="1149211549" departLane="best" type="bus_bus"/>
    <trip id="bus151" depart="287.77" from="1170572265#1" to="-1303405063" departLane="best" type="bus_bus"/>
    <trip id="bus152" depart="289.68" from="-22857746#0" to="697908033" departLane="best" type="bus_bus"/>
    <trip id="bus153" depart="291.58" from="180849295#0" to="940618571" departLane="best" type="bus_bus" departSpeed="max"/>
    <trip id="bus154" depart="293.49" from="1303407343#3" to="769934251" departLane="best" type="bus_bus"/>
    <trip id="bus155" depart="295.39" from="72879621#0" to="145259372#1" departLane="best" type="bus_bus"/>
    <trip id="bus156" depart="297.30" from="202565746#1" to="1237198320#1" departLane="best" type="bus_bus"/>
    <trip id="bus157" depart="299.20" from="554883180" to="1303407343#3" departLane="best" type="bus_bus" departSpeed="max"/>
    <trip id="bus158" depart="301.11" from="72879992#2" to="235882320#1" departLane="best" type="bus_bus"/>
    <trip id="bus159" depart="303.02" from="1124062591#1" to="-72878713#1" departLane="best" type="bus_bus"/>
    <trip id="bus160" depart="304.92" from="-22857665#3" to="180849315#1" departLane="best" type="bus_bus"/>
    <trip id="bus161" depart="306.83" from="257802532#4" to="1266523675" departLane="best" type="bus_bus"/>
    <trip id="bus162" depart="308.73" from="1342403299" to="-72879621#3" departLane="best" type="bus_bus" departSpeed="max"/>
    <trip id="bus163" depart="310.64" from="-1214705780" to="-73030425#0" departLane="best" type="bus_bus" departSpeed="max"/>
    <trip id="bus164" depart="312.55" from="1190311283#0" to="-181613191#0" departLane="best" type="bus_bus"/>
    <trip id="bus165" depart="314.45" from="183286146" to="-1303407347" departLane="best" type="bus_bus" departSpeed="max"/>
    <trip id="bus166" depart="316.36" from="-73032858#3" to="1303405062" departLane="best" type="bus_bus" departSpeed="max"/>
    <trip id="bus167" depart="318.26" from="-779655423#2" to="-377008000" departLane="best" type="bus_bus"/>
    <trip id="bus168" depart="320.17" from="72878021#1" to="377007961" departLane="best" type="bus_bus"/>
    <trip id="bus169" depart="322.07" from="-73030424#1" to="-1107006912#1" departLane="best" type="bus_bus"/>
    <trip id="bus170" depart="323.98" from="-72878700#2" to="257802533#6" departLane="best" type="bus_bus"/>
    <trip id="bus171" depart="325.89" from="119869841" to="1411449768" departLane="best" type="bus_bus"/>
    <trip id="bus172" depart="327.79" from="-936564432" to="-1175874709" departLane="best" type="bus_bus" departSpeed="max"/>
    <trip id="bus173" depart="329.70" from="-715173427#2" to="183252908#1" departLane="best" type="bus_bus"/>
    <trip id="bus174" depart="331.60" from="-73032857#3" to="-22857308#2" departLane="best" type="bus_bus"/>
    <trip id="bus175" depart="333.51" from="1341763347#1" to="-1175561464#1" departLane="best" type="bus_bus"/>
    <trip id="bus176" depart="335.41" from="-73032196#1" to="1330595689" departLane="best" type="bus_bus"/>
    <trip id="bus177" depart="337.32" from="-1124062592" to="181613136#1" departLane="best" type="bus_bus"/>
    <trip id="bus178" depart="339.23" from="-1341763346#1" to="1187220670#0" departLane="best" type="bus_bus"/>
    <trip id="bus179" depart="341.13" from="-1187199253" to="1120331189#3" departLane="best" type="bus_bus" departSpeed="max"/>
    <trip id="bus180" depart="343.04" from="-183255903" to="-788344770" departLane="best" type="bus_bus" departSpeed="max"/>
    <trip id="bus181" depart="344.94" from="255387132" to="1120331189#3" departLane="best" type="bus_bus" departSpeed="max"/>
    <trip id="bus182" depart="346.85" from="-257802532#3" to="-1341021008" departLane="best" type="bus_bus"/>
    <trip id="bus183" depart="348.75" from="-1123427073" to="1303405060" departLane="best" type="bus_bus" departSpeed="max"/>
    <trip id="bus184" depart="350.66" from="992712235" to="-992712216" departLane="best" type="bus_bus"/>
    <trip id="bus185" depart="352.57" from="151829697#0" to="377007995#2" departLane="best" type="bus_bus"/>
    <trip id="bus186" depart="354.47" from="151829697#4" to="257802533#7" departLane="best" type="bus_bus"/>
    <trip id="bus187" depart="356.38" from="1254111144#1" to="-437935591" departLane="best" type="bus_bus"/>
    <trip id="bus188" depart="358.28" from="-169205165#8" to="1430793253" departLane="best" type="bus_bus" departSpeed="max"/>
    <trip id="bus189" depart="360.19" from="22857665#0" to="-180849295#0" departLane="best" type="bus_bus" departSpeed="max"/>
    <trip id="bus190" depart="362.10" from="-1303419084" to="-1175561462" departLane="best" type="bus_bus"/>
    <trip id="bus191" depart="364.00" from="-476051977#1" to="183252908#1" departLane="best" type="bus_bus" departSpeed="max"/>
    <trip id="bus192" depart="365.91" from="788344772#0" to="1124062595#1" departLane="best" type="bus_bus" departSpeed="max"/>
    <trip id="bus193" depart="367.81" from="-1303407342#2" to="377007973" departLane="best" type="bus_bus"/>
    <trip id="bus194" depart="369.72" from="701001725" to="1411123739#1" departLane="best" type="bus_bus"/>
    <trip id="bus195" depart="371.62" from="-1330595689" to="936564432" departLane="best" type="bus_bus" departSpeed="max"/>
    <trip id="bus196" depart="373.53" from="1150075890#0" to="-936975119" departLane="best" type="bus_bus"/>
    <trip id="bus197" depart="375.44" from="697913241" to="476215462" departLane="best" type="bus_bus" departSpeed="max"/>
    <trip id="bus198" depart="377.34" from="1411123740#2" to="49132049#2" departLane="best" type="bus_bus"/>
    <trip id="bus199" depart="379.25" from="183286155" to="1170572262#2" departLane="best" type="bus_bus"/>
    <trip id="bus200" depart="381.15" from="1190310784" to="1190752092" departLane="best" type="bus_bus" departSpeed="max"/>
    <trip id="bus201" depart="383.06" from="-927441547#1" to="22857481" departLane="best" type="bus_bus"/>
    <trip id="bus202" depart="384.96" from="554883180" to="-1341763349#1" departLane="best" type="bus_bus" departSpeed="max"/>
    <trip id="bus203" depart="386.87" from="72878888#1" to="-72878020#0" departLane="best" type="bus_bus"/>
    <trip id="bus204" depart="388.78" from="1120331189#6" to="144386246#0" departLane="best" type="bus_bus"/>
    <trip id="bus205" depart="390.68" from="-73030423#5" to="-1175872556" departLane="best" type="bus_bus"/>
    <trip id="bus206" depart="392.59" from="715173427#0" to="-255387132" departLane="best" type="bus_bus"/>
    <trip id="bus207" depart="394.49" from="183286143#0" to="-72879628#2" departLane="best" type="bus_bus"/>
    <trip id="bus208" depart="396.40" from="-1107006912#0" to="741812807#1" departLane="best" type="bus_bus"/>
    <trip id="bus209" depart="398.30" from="-1285481595" to="214785862#0" departLane="best" type="bus_bus"/>
    <trip id="bus210" depart="400.21" from="1124983203#2" to="437935592#1" departLane="best" type="bus_bus"/>
    <trip id="bus211" depart="402.12" from="-1303402612#1" to="-473492847" departLane="best" type="bus_bus" departSpeed="max"/>
    <trip id="bus212" depart="404.02" from="181613191#0" to="-73032689#0" departLane="best" type="bus_bus" departSpeed="max"/>
    <trip id="bus213" depart="405.93" from="1303405060" to="1189622123" departLane="best" type="bus_bus"/>
    <trip id="bus214" depart="407.83" from="1187220670#2" to="1149211549" departLane="best" type="bus_bus"/>
    <trip id="bus215" depart="409.74" from="22857480" to="-788344772#0" departLane="best" type="bus_bus"/>
    <trip id="bus216" depart="411.64" from="183286143#3" to="-72879613#1" departLane="best" type="bus_bus"/>
    <trip id="bus217" depart="413.55" from="-181613182#1" to="-180849322#1" departLane="best" type="bus_bus"/>
    <trip id="bus218" depart="415.46" from="1188585297#8" to="377007953#7" departLane="best" type="bus_bus"/>
    <trip id="bus219" depart="417.36" from="-181613147" to="-437935591" departLane="best" type="bus_bus" departSpeed="max"/>
    <trip id="bus220" depart="419.27" from="1124062596#2" to="22857230" departLane="best" type="bus_bus"/>
    <trip id="bus221" depart="421.17" from="83337274#1" to="1267442521#0" departLane="best" type="bus_bus"/>
    <trip id="bus222" depart="423.08" from="-377007995#0" to="-145259482#3" departLane="best" type="bus_bus"/>
    <trip id="bus223" depart="424.99" from="-181613182#5" to="-49132049#2" departLane="best" type="bus_bus" departSpeed="max"/>
    <trip id="bus224" depart="426.89" from="-181613140#2" to="-1124062591#1" departLane="best" type="bus_bus"/>
    <trip id="bus225" depart="428.80" from="83337274#0" to="1309532003" departLane="best" type="bus_bus" departSpeed="max"/>
    <trip id="bus226" depart="430.70" from="72878027#5" to="119866180#3" departLane="best" type="bus_bus"/>
    <trip id="bus227" depart="432.61" from="72878693#4" to="1330607450" departLane="best" type="bus_bus"/>
    <trip id="bus228" depart="434.51" from="1123427093#1" to="1175242889#1" departLane="best" type="bus_bus"/>
    <trip id="bus229" depart="436.42" from="-181613147" to="-1303405064" departLane="best" type="bus_bus" departSpeed="max"/>
    <trip id="bus230" depart="438.33" from="73048152" to="1189623924" departLane="best" type="bus_bus" departSpeed="max"/>
    <trip id="bus231" depart="440.23" from="473493132" to="1124062595#8" departLane="best" type="bus_bus"/>
    <trip id="bus232" depart="442.14" from="-119866180#1" to="169205165#6" departLane="best" type="bus_bus"/>
    <trip id="bus233" depart="444.04" from="-1187221752" to="-214785797" departLane="best" type="bus_bus"/>
    <trip id="bus234" depart="445.95" from="1253922909" to="-73032198#2" departLane="best" type="bus_bus"/>
    <trip id="bus235" depart="447.85" from="39227990#0" to="-474538040#1" departLane="best" type="bus_bus"/>
    <trip id="bus236" depart="449.76" from="1175246061#1" to="1175606910" departLane="best" type="bus_bus"/>
    <trip id="bus237" depart="451.67" from="-988982707" to="72878021#1" departLane="best" type="bus_bus"/>
    <trip id="bus238" depart="453.57" from="1341763346#0" to="144385871#0" departLane="best" type="bus_bus"/>
    <trip id="bus239" depart="455.48" from="22857308#2" to="741812807#0" departLane="best" type="bus_bus"/>
    <trip id="bus240" depart="457.38" from="-183252908#1" to="-424021746" departLane="best" type="bus_bus" departSpeed="max"/>
    <trip id="bus241" depart="459.29" from="-180849322#1" to="-1330632312" departLane="best" type="bus_bus"/>
    <trip id="bus242" depart="461.19" from="-1082914485" to="1175606910" departLane="best" type="bus_bus" departSpeed="max"/>
    <trip id="bus243" depart="463.10" from="1303407342#3" to="-73030447#6" departLane="best" type="bus_bus"/>
    <trip id="bus244" depart="465.01" from="183286143#3" to="1175890758" departLane="best" type="bus_bus"/>
    <trip id="bus245" depart="466.91" from="181613172" to="73032198#0" departLane="best" type="bus_bus"/>
    <trip id="bus246" depart="468.82" from="377007995#0" to="169205034#1" departLane="best" type="bus_bus"/>
    <trip id="bus247" depart="470.72" from="169205165#1" to="73032858#1" departLane="best" type="bus_bus"/>
    <trip id="bus248" depart="472.63" from="49131844" to="-1330596411" departLane="best" type="bus_bus"/>
    <trip id="bus249" depart="474.54" from="-169205165#8" to="-73032689#2" departLane="best" type="bus_bus" departSpeed="max"/>
    <trip id="bus250" depart="476.44" from="22857665#0" to="1330603589" departLane="best" type="bus_bus" departSpeed="max"/>
    <trip id="bus251" depart="478.35" from="-424037876" to="-181613136#2" departLane="best" type="bus_bus" departSpeed="max"/>
    <trip id="bus252" depart="480.25" from="73048153#1" to="1236044649#4" departLane="best" type="bus_bus"/>