<?xml version="1.0" encoding="UTF-8"?>

<!-- generated on 2025-11-08 07:34:11.717099 by osmWebWizard.py UNKNOWN
<configuration>
    <net-file value="/Users/aaryankhanna/Sumo/2025-11-08-07-34-01/osm.net.xml.gz"/>
    <output-trip-file value="/Users/aaryankhanna/Sumo/2025-11-08-07-34-01/osm.motorcycle.trips.xml"/>
    <route-file value="/Users/aaryankhanna/Sumo/2025-11-08-07-34-01/osm.motorcycle.rou.xml"/>
    <prefix value="motorcycle"/>
    <trip-attributes value="departLane=&quot;best&quot;"/>
    <fringe-start-attributes value="departSpeed=&quot;max&quot;"/>
    <vehicle-class value="motorcycle"/>
    <fringe-factor value="2"/>
    <edge-permission value="motorcycle"/>
    <via-edge-types value="highway.motorway,highway.motorway_link,highway.trunk_link,highway.primary_link,highway.secondary_link,highway.tertiary_link"/>
    <seed value="43"/>
    <max-distance value="1200.0"/>
    <remove-loops value="True"/>
    <insertion-density value="30.0"/>
</configuration>
-->

<routes xmlns:xsi="http://www.w3.org/2001/XMLSchema-instance" xsi:noNamespaceSchemaLocation="http://sumo.dlr.de/xsd/routes_file.xsd">
    <vType id="motorcycle_motorcycle" vClass="motorcycle"/>
    <trip id="motorcycle0" depart="0.00" from="-1186765029" to="202565742#3" departLane="best" type="motorcycle_motorcycle" departSpeed="max"/>
    <trip id="motorcycle1" depart="0.95" from="-180849310" to="1175890758" departLane="best" type="motorcycle_motorcycle"/>
    <trip id="motorcycle2" depart="1.90" from="-73048153#3" to="72878027#1" departLane="best" type="motorcycle_motorcycle"/>
    <trip id="motorcycle3" depart="2.85" from="377007995#0" to="1411123740#2" departLane="best" type="motorcycle_motorcycle"/>
    <trip id="motorcycle4" depart="3.80" from="1188585297#2" to="1334174227#2" departLane="best" type="motorcycle_motorcycle"/>
    <trip id="motorcycle5" depart="4.74" from="-1236044649#1" to="73048153#2" departLane="best" type="motorcycle_motorcycle"/>
    <trip id="motorcycle6" depart="5.69" from="72878021#1" to="-73030447#6" departLane="best" type="motorcycle_motorcycle"/>
    <trip id="motorcycle7" depart="6.64" from="72879992#0" to="1258637589#0" departLane="best" type="motorcycle_motorcycle"/>
    <trip id="motorcycle8" depart="7.59" from="-1334174227#1" to="72878027#6" departLane="best" type="motorcycle_motorcycle"/>
    <trip id="motorcycle9" depart="8.54" from="181613190" to="-1430799043" departLane="best" type="motorcycle_motorcycle"/>
    <trip id="motorcycle10" depart="9.49" from="145259176" to="439786086#10" departLane="best" type="motorcycle_motorcycle"/>
    <trip id="motorcycle11" depart="10.44" from="-181613182#3" to="72878023#8" departLane="best" type="motorcycle_motorcycle"/>
    <trip id="motorcycle12" depart="11.39" from="424021749" to="-1303405064" departLane="best" type="motorcycle_motorcycle"/>
    <trip id="motorcycle13" depart="12.34" from="1334174227#1" to="1090898710#1" departLane="best" type="motorcycle_motorcycle"/>
    <trip id="motorcycle14" depart="13.28" from="788838089" to="1303408691#1" departLane="best" type="motorcycle_motorcycle"/>
    <trip id="motorcycle15" depart="14.23" from="-1342404739" to="1214705780" departLane="best" type="motorcycle_motorcycle"/>
    <trip id="motorcycle16" depart="15.18" from="788401442#3" to="1430798971" departLane="best" type="motorcycle_motorcycle"/>
    <trip id="motorcycle17" depart="16.13" from="-1303417314" to="-181613140#4" departLane="best" type="motorcycle_motorcycle"/>
    <trip id="motorcycle18" depart="17.08" from="-131876116#0" to="181613189" departLane="best" type="motorcycle_motorcycle"/>
    <trip id="motorcycle19" depart="18.03" from="-181613140#4" to="476215614" departLane="best" type="motorcycle_motorcycle"/>
    <trip id="motorcycle20" depart="18.98" from="83337274#1" to="-181613136#2" departLane="best" type="motorcycle_motorcycle"/>
    <trip id="motorcycle21" depart="19.93" from="73030447#1" to="72879621#3" departLane="best" type="motorcycle_motorcycle"/>
    <trip id="motorcycle22" depart="20.88" from="-73030425#1" to="22857230" departLane="best" type="motorcycle_motorcycle"/>
    <trip id="motorcycle23" depart="21.82" from="202565713#3" to="72878023#12" departLane="best" type="motorcycle_motorcycle"/>
    <trip id="motorcycle24" depart="22.77" from="72878027#9" to="1120331190#1" departLane="best" type="motorcycle_motorcycle"/>
    <trip id="motorcycle25" depart="23.72" from="214785797" to="-1430799042#1" departLane="best" type="motorcycle_motorcycle" departSpeed="max"/>
    <trip id="motorcycle26" depart="24.67" from="1303407347" to="-72878886#1" departLane="best" type="motorcycle_motorcycle"/>
    <trip id="motorcycle27" depart="25.62" from="1330604095" to="73030704#0" departLane="best" type="motorcycle_motorcycle"/>
    <trip id="motorcycle28" depart="26.57" from="788401442#1" to="183248165#0" departLane="best" type="motorcycle_motorcycle"/>
    <trip id="motorcycle29" depart="27.52" from="-377007953#3" to="1175606910" departLane="best" type="motorcycle_motorcycle"/>
    <trip id="motorcycle30" depart="28.47" from="-169204779" to="377007977#1" departLane="best" type="motorcycle_motorcycle"/>
    <trip id="motorcycle31" depart="29.42" from="202565682#6" to="-181613136#2" departLane="best" type="motorcycle_motorcycle"/>
    <trip id="motorcycle32" depart="30.36" from="1120331189#1" to="-1124062593#0" departLane="best" type="motorcycle_motorcycle"/>
    <trip id="motorcycle33" depart="31.31" from="-473493132" to="-181613165" departLane="best" type="motorcycle_motorcycle"/>
    <trip id="motorcycle34" depart="32.26" from="-22857295#1" to="-1236044649#4" departLane="best" type="motorcycle_motorcycle"/>
    <trip id="motorcycle35" depart="33.21" from="-49132049#2" to="202565742#9" departLane="best" type="motorcycle_motorcycle"/>
    <trip id="motorcycle36" depart="34.16" from="-685945404" to="181613140#4" departLane="best" type="motorcycle_motorcycle"/>
    <trip id="motorcycle37" depart="35.11" from="-1303405061" to="214785799#1" departLane="best" type="motorcycle_motorcycle" departSpeed="max"/>
    <trip id="motorcycle38" depart="36.06" from="22857444#0" to="1189160883" departLane="best" type="motorcycle_motorcycle"/>
    <trip id="motorcycle39" depart="37.01" from="181613140#9" to="-73030702#3" departLane="best" type="motorcycle_motorcycle"/>
    <trip id="motorcycle40" depart="37.96" from="1170351941#3" to="1170572262#3" departLane="best" type="motorcycle_motorcycle"/>
    <trip id="motorcycle41" depart="38.90" from="1258637589#0" to="72878023#3" departLane="best" type="motorcycle_motorcycle"/>
    <trip id="motorcycle42" depart="39.85" from="1342404741" to="22857480" departLane="best" type="motorcycle_motorcycle"/>
    <trip id="motorcycle43" depart="40.80" from="-255387123#0" to="73032857#3" departLane="best" type="motorcycle_motorcycle"/>
    <trip id="motorcycle44" depart="41.75" from="169204779" to="570946691#7" departLane="best" type="motorcycle_motorcycle"/>
    <trip id="motorcycle45" depart="42.70" from="72881199#2" to="-715173427#0" departLane="best" type="motorcycle_motorcycle"/>
    <trip id="motorcycle46" depart="43.65" from="988680591" to="151829684#3" departLane="best" type="motorcycle_motorcycle"/>
    <trip id="motorcycle47" depart="44.60" from="1124983205" to="-73030700" departLane="best" type="motorcycle_motorcycle" departSpeed="max"/>
    <trip id="motorcycle48" depart="45.55" from="-73032857#1" to="438525559#0" departLane="best" type="motorcycle_motorcycle"/>
    <trip id="motorcycle49" depart="46.50" from="202565682#5" to="1170572263" departLane="best" type="motorcycle_motorcycle"/>
    <trip id="motorcycle50" depart="47.44" from="-377007973" to="1175890758" departLane="best" type="motorcycle_motorcycle" departSpeed="max"/>
    <trip id="motorcycle51" depart="48.39" from="-73048155#2" to="988982706" departLane="best" type="motorcycle_motorcycle"/>
    <trip id="motorcycle52" depart="49.34" from="1237198318" to="-1303405060" departLane="best" type="motorcycle_motorcycle"/>
    <trip id="motorcycle53" depart="50.29" from="-183255903" to="72879621#4" departLane="best" type="motorcycle_motorcycle" departSpeed="max"/>
    <trip id="motorcycle54" depart="51.24" from="1330632312" to="22857230" departLane="best" type="motorcycle_motorcycle" departSpeed="max"/>
    <trip id="motorcycle55" depart="52.19" from="73030700" to="-72878888#0" departLane="best" type="motorcycle_motorcycle" departSpeed="max"/>
    <trip id="motorcycle56" depart="53.14" from="1175872556" to="73031452#0" departLane="best" type="motorcycle_motorcycle"/>
    <trip id="motorcycle57" depart="54.09" from="72879616" to="72878022#2" departLane="best" type="motorcycle_motorcycle"/>
    <trip id="motorcycle58" depart="55.04" from="119866178#0" to="-181613165" departLane="best" type="motorcycle_motorcycle"/>
    <trip id="motorcycle59" depart="55.98" from="1170572262#6" to="570946691#5" departLane="best" type="motorcycle_motorcycle"/>
    <trip id="motorcycle60" depart="56.93" from="181613191#0" to="1303407342#0" departLane="best" type="motorcycle_motorcycle" departSpeed="max"/>
    <trip id="motorcycle61" depart="57.88" from="1170351941#1" to="741812807#3" departLane="best" type="motorcycle_motorcycle"/>
    <trip id="motorcycle62" depart="58.83" from="-72881199#3" to="-1236044649#1" departLane="best" type="motorcycle_motorcycle"/>
    <trip id="motorcycle63" depart="59.78" from="-214785799#1" to="169205165#6" departLane="best" type="motorcycle_motorcycle"/>
    <trip id="motorcycle64" depart="60.73" from="1090898710#1" to="-1303407344" departLane="best" type="motorcycle_motorcycle"/>
    <trip id="motorcycle65" depart="61.68" from="169204559#1" to="-1341763349#1" departLane="best" type="motorcycle_motorcycle"/>
    <trip id="motorcycle66" depart="62.63" from="72881199#3" to="73032692#1" departLane="best" type="motorcycle_motorcycle"/>
    <trip id="motorcycle67" depart="63.58" from="377008000" to="-119869838#0" departLane="best" type="motorcycle_motorcycle"/>
    <trip id="motorcycle68" depart="64.52" from="-1303405060" to="72878980" departLane="best" type="motorcycle_motorcycle"/>
    <trip id="motorcycle69" depart="65.47" from="181613140#9" to="49131844" departLane="best" type="motorcycle_motorcycle"/>
    <trip id="motorcycle70" depart="66.42" from="180849322#3" to="-554883180" departLane="best" type="motorcycle_motorcycle"/>
    <trip id="motorcycle71" depart="67.37" from="439786086#10" to="169205165#1" departLane="best" type="motorcycle_motorcycle"/>
    <trip id="motorcycle72" depart="68.32" from="1063794428#0" to="169205165#5" departLane="best" type="motorcycle_motorcycle"/>
    <trip id="motorcycle73" depart="69.27" from="1124983203#3" to="1343441065" departLane="best" type="motorcycle_motorcycle"/>
    <trip id="motorcycle74" depart="70.22" from="-22857444#1" to="1150075890#6" departLane="best" type="motorcycle_motorcycle"/>
    <trip id="motorcycle75" depart="71.17" from="715173427#1" to="1190753155" departLane="best" type="motorcycle_motorcycle"/>
    <trip id="motorcycle76" depart="72.12" from="-181613140#4" to="-1190310784" departLane="best" type="motorcycle_motorcycle"/>
    <trip id="motorcycle77" depart="73.06" from="1303418441" to="377007995#2" departLane="best" type="motorcycle_motorcycle"/>
    <trip id="motorcycle78" depart="74.01" from="-1342404738#0" to="1170572262#3" departLane="best" type="motorcycle_motorcycle"/>
    <trip id="motorcycle79" depart="74.96" from="1124983205" to="-181613136#0" departLane="best" type="motorcycle_motorcycle" departSpeed="max"/>
    <trip id="motorcycle80" depart="75.91" from="151829684#3" to="-72878696" departLane="best" type="motorcycle_motorcycle"/>
    <trip id="motorcycle81" depart="76.86" from="1236044649#0" to="-701001725" departLane="best" type="motorcycle_motorcycle"/>
    <trip id="motorcycle82" depart="77.81" from="-1342404740" to="1149211549" departLane="best" type="motorcycle_motorcycle"/>
    <trip id="motorcycle83" depart="78.76" from="181613191#0" to="-377007995#1" departLane="best" type="motorcycle_motorcycle" departSpeed="max"/>
    <trip id="motorcycle84" depart="79.71" from="180849322#3" to="131876116#4" departLane="best" type="motorcycle_motorcycle"/>
    <trip id="motorcycle85" depart="80.66" from="73032689#0" to="49132049#2" departLane="best" type="motorcycle_motorcycle"/>
    <trip id="motorcycle86" depart="81.60" from="-1124062594#1" to="22857444#2" departLane="best" type="motorcycle_motorcycle"/>
    <trip id="motorcycle87" depart="82.55" from="-1214705780" to="1142049707#0" departLane="best" type="motorcycle_motorcycle" departSpeed="max"/>
    <trip id="motorcycle88" depart="83.50" from="-73032196#0" to="439786102#2" departLane="best" type="motorcycle_motorcycle"/>
    <trip id="motorcycle89" depart="84.45" from="-257802532#4" to="-181613136#1" departLane="best" type="motorcycle_motorcycle"/>
    <trip id="motorcycle90" depart="85.40" from="-72881199#2" to="1330607450" departLane="best" type="motorcycle_motorcycle"/>
    <trip id="motorcycle91" depart="86.35" from="-715173427#5" to="-169205165#5" departLane="best" type="motorcycle_motorcycle"/>
    <trip id="motorcycle92" depart="87.30" from="1123427076#1" to="-22857665#2" departLane="best" type="motorcycle_motorcycle"/>
    <trip id="motorcycle93" depart="88.25" from="181613161#0" to="22857381#1" departLane="best" type="motorcycle_motorcycle"/>
    <trip id="motorcycle94" depart="89.20" from="-438775869" to="169205165#2" departLane="best" type="motorcycle_motorcycle"/>
    <trip id="motorcycle95" depart="90.14" from="-1334174227#0" to="-73032691#0" departLane="best" type="motorcycle_motorcycle"/>
    <trip id="motorcycle96" depart="91.09" from="1430799042#1" to="125337464#3" departLane="best" type="motorcycle_motorcycle"/>
    <trip id="motorcycle97" depart="92.04" from="1170351972#0" to="-72878713#3" departLane="best" type="motorcycle_motorcycle"/>
    <trip id="motorcycle98" depart="92.99" from="119866180#3" to="125337464#6" departLane="best" type="motorcycle_motorcycle"/>
    <trip id="motorcycle99" depart="93.94" from="-589173708" to="180849292#5" departLane="best" type="motorcycle_motorcycle" departSpeed="max"/>
    <trip id="motorcycle100" depart="94.89" from="988680593" to="72878980" departLane="best" type="motorcycle_motorcycle" departSpeed="max"/>
    <trip id="motorcycle101" depart="95.84" from="-1236044649#0" to="214785853#1" departLane="best" type="motorcycle_motorcycle"/>
    <trip id="motorcycle102" depart="96.79" from="-1175246061#1" to="445319671" departLane="best" type="motorcycle_motorcycle"/>
    <trip id="motorcycle103" depart="97.74" from="-476215614" to="-22857665#0" departLane="best" type="motorcycle_motorcycle" departSpeed="max"/>
    <trip id="motorcycle104" depart="98.68" from="1124062592" to="1237198319" departLane="best" type="motorcycle_motorcycle"/>
    <trip id="motorcycle105" depart="99.63" from="-1189623328" to="-22857444#1" departLane="best" type="motorcycle_motorcycle" departSpeed="max"/>
    <trip id="motorcycle106" depart="100.58" from="202565682#7" to="-181613182#0" departLane="best" type="motorcycle_motorcycle"/>
    <trip id="motorcycle107" depart="101.53" from="988982698#5" to="1092139662#3" departLane="best" type="motorcycle_motorcycle"/>
    <trip id="motorcycle108" depart="102.48" from="-181613140#3" to="1190753155" departLane="best" type="motorcycle_motorcycle"/>
    <trip id="motorcycle109" depart="103.43" from="-72878020#0" to="-72879615" departLane="best" type="motorcycle_motorcycle"/>
    <trip id="motorcycle110" depart="104.38" from="-927441547#0" to="169205165#2" departLane="best" type="motorcycle_motorcycle"/>
    <trip id="motorcycle111" depart="105.33" from="439786102#3" to="769934251" departLane="best" type="motorcycle_motorcycle"/>
    <trip id="motorcycle112" depart="106.28" from="83337263#1" to="-938638199#0" departLane="best" type="motorcycle_motorcycle"/>
    <trip id="motorcycle113" depart="107.22" from="72878019#1" to="202565742#5" departLane="best" type="motorcycle_motorcycle"/>
    <trip id="motorcycle114" depart="108.17" from="73030423#5" to="73030423#1" departLane="best" type="motorcycle_motorcycle"/>
    <trip id="motorcycle115" depart="109.12" from="-73030425#1" to="22857490" departLane="best" type="motorcycle_motorcycle"/>
    <trip id="motorcycle116" depart="110.07" from="-377007995#1" to="1142049707#2" departLane="best" type="motorcycle_motorcycle"/>
    <trip id="motorcycle117" depart="111.02" from="-1303417314" to="-73032692#2" departLane="best" type="motorcycle_motorcycle"/>
    <trip id="motorcycle118" depart="111.97" from="-1342404739" to="1190294344" departLane="best" type="motorcycle_motorcycle"/>
    <trip id="motorcycle119" depart="112.92" from="-1175561462" to="988680592" departLane="best" type="motorcycle_motorcycle"/>
    <trip id="motorcycle120" depart="113.87" from="1303407342#4" to="73030704#1" departLane="best" type="motorcycle_motorcycle"/>
    <trip id="motorcycle121" depart="114.82" from="1120331189#4" to="-938638199#1" departLane="best" type="motorcycle_motorcycle"/>
    <trip id="motorcycle122" depart="115.76" from="1124062596#3" to="438525559#1" departLane="best" type="motorcycle_motorcycle"/>
    <trip id="motorcycle123" depart="116.71" from="-72879991#2" to="73030425#3" departLane="best" type="motorcycle_motorcycle"/>
    <trip id="motorcycle124" depart="117.66" from="72878021#1" to="183252908#1" departLane="best" type="motorcycle_motorcycle"/>
    <trip id="motorcycle125" depart="118.61" from="72878713#1" to="-988982707" departLane="best" type="motorcycle_motorcycle"/>
    <trip id="motorcycle126" depart="119.56" from="-73048714#0" to="73048155#2" departLane="best" type="motorcycle_motorcycle"/>
    <trip id="motorcycle127" depart="120.51" from="1123844593#1" to="-73032200#0" departLane="best" type="motorcycle_motorcycle"/>
    <trip id="motorcycle128" depart="121.46" from="474538040#1" to="-988606527" departLane="best" type="motorcycle_motorcycle"/>
    <trip id="motorcycle129" depart="122.41" from="1092139662#5" to="1330605877" departLane="best" type="motorcycle_motorcycle"/>
    <trip id="motorcycle130" depart="123.36" from="1356597390" to="-1303402612#0" departLane="best" type="motorcycle_motorcycle"/>
    <trip id="motorcycle131" depart="124.30" from="-1330595689" to="-73030447#1" departLane="best" type="motorcycle_motorcycle" departSpeed="max"/>
    <trip id="motorcycle132" depart="125.25" from="22857444#1" to="125337464#5" departLane="best" type="motorcycle_motorcycle"/>
    <trip id="motorcycle133" depart="126.20" from="-131876116#2" to="-940618572" departLane="best" type="motorcycle_motorcycle"/>
    <trip id="motorcycle134" depart="127.15" from="235882320#2" to="-1175561464#0" departLane="best" type="motorcycle_motorcycle"/>
    <trip id="motorcycle135" depart="128.10" from="-72879991#1" to="-73048153#0" departLane="best" type="motorcycle_motorcycle"/>
    <trip id="motorcycle136" depart="129.05" from="438525563" to="715173427#3" departLane="best" type="motorcycle_motorcycle" departSpeed="max"/>
    <trip id="motorcycle137" depart="130.00" from="181613140#2" to="1324970653#0" departLane="best" type="motorcycle_motorcycle"/>
    <trip id="motorcycle138" depart="130.95" from="169204559#4" to="1170572262#4" departLane="best" type="motorcycle_motorcycle"/>
    <trip id="motorcycle139" depart="131.90" from="1430793254#0" to="-992712235" departLane="best" type="motorcycle_motorcycle"/>
    <trip id="motorcycle140" depart="132.84" from="988982698#6" to="72878023#7" departLane="best" type="motorcycle_motorcycle"/>
    <trip id="motorcycle141" depart="133.79" from="-788380129" to="-788380128" departLane="best" type="motorcycle_motorcycle" departSpeed="max"/>
    <trip id="motorcycle142" depart="134.74" from="72879628#2" to="73037905#2" departLane="best" type="motorcycle_motorcycle"/>
    <trip id="motorcycle143" depart="135.69" from="-73032689#0" to="-181613149" departLane="best" type="motorcycle_motorcycle"/>
    <trip id="motorcycle144" depart="136.64" from="125337464#0" to="1175890758" departLane="best" type="motorcycle_motorcycle"/>
    <trip id="motorcycle145" depart="137.59" from="-1123427073" to="1330597146" departLane="best" type="motorcycle_motorcycle" departSpeed="max"/>
    <trip id="motorcycle146" depart="138.54" from="181613191#1" to="1303408691#0" departLane="best" type="motorcycle_motorcycle"/>
    <trip id="motorcycle147" depart="139.49" from="-1082914485" to="1330605877" departLane="best" type="motorcycle_motorcycle" departSpeed="max"/>
    <trip id="motorcycle148" depart="140.44" from="73032194#1" to="202564780" departLane="best" type="motorcycle_motorcycle"/>
    <trip id="motorcycle149" depart="141.38" from="119866178#1" to="1111772023" departLane="best" type="motorcycle_motorcycle"/>
    <trip id="motorcycle150" depart="142.33" from="788344772#0" to="-214785799#1" departLane="best" type="motorcycle_motorcycle" departSpeed="max"/>
    <trip id="motorcycle151" depart="143.28" from="1430799043" to="1266523675" departLane="best" type="motorcycle_motorcycle" departSpeed="max"/>
    <trip id="motorcycle152" depart="144.23" from="-473492847" to="-1342404739" departLane="best" type="motorcycle_motorcycle"/>
    <trip id="motorcycle153" depart="145.18" from="-72878888#1" to="183252725#0" departLane="best" type="motorcycle_motorcycle"/>
    <trip id="motorcycle154" depart="146.13" from="-1303405060" to="-181613140#0" departLane="best" type="motorcycle_motorcycle"/>
    <trip id="motorcycle155" depart="147.08" from="-377007953#5" to="1341763349#0" departLane="best" type="motorcycle_motorcycle"/>
    <trip id="motorcycle156" depart="148.03" from="1342403299" to="83337263#0" departLane="best" type="motorcycle_motorcycle" departSpeed="max"/>
    <trip id="motorcycle157" depart="148.98" from="-73030424#1" to="-72879992#0" departLane="best" type="motorcycle_motorcycle"/>
    <trip id="motorcycle158" depart="149.92" from="73048161#3" to="-72878890#3" departLane="best" type="motorcycle_motorcycle"/>
    <trip id="motorcycle159" depart="150.87" from="-1411449768" to="145259372#1" departLane="best" type="motorcycle_motorcycle" departSpeed="max"/>
    <trip id="motorcycle160" depart="151.82" from="-1236044649#3" to="1124062596#8" departLane="best" type="motorcycle_motorcycle"/>
    <trip id="motorcycle161" depart="152.77" from="-992712215#0" to="715173427#2" departLane="best" type="motorcycle_motorcycle"/>
    <trip id="motorcycle162" depart="153.72" from="22857665#0" to="476051977#1" departLane="best" type="motorcycle_motorcycle" departSpeed="max"/>
    <trip id="motorcycle163" depart="154.67" from="-788380132#1" to="-22857665#4" departLane="best" type="motorcycle_motorcycle"/>
    <trip id="motorcycle164" depart="155.62" from="-1343441065" to="377007973" departLane="best" type="motorcycle_motorcycle" departSpeed="max"/>
    <trip id="motorcycle165" depart="156.57" from="183248165#1" to="235882320#0" departLane="best" type="motorcycle_motorcycle"/>
    <trip id="motorcycle166" depart="157.52" from="-377007957#1" to="-181613134" departLane="best" type="motorcycle_motorcycle"/>
    <trip id="motorcycle167" depart="158.46" from="715173427#3" to="181613147" departLane="best" type="motorcycle_motorcycle"/>
    <trip id="motorcycle168" depart="159.41" from="779655423#0" to="-72879621#2" departLane="best" type="motorcycle_motorcycle"/>
    <trip id="motorcycle169" depart="160.36" from="-1342404742" to="-779655423#0" departLane="best" type="motorcycle_motorcycle"/>
    <trip id="motorcycle170" depart="161.31" from="1324970653#1" to="788825458" departLane="best" type="motorcycle_motorcycle"/>
    <trip id="motorcycle171" depart="162.26" from="72878693#1" to="-73032691#0" departLane="best" type="motorcycle_motorcycle"/>
    <trip id="motorcycle172" depart="163.21" from="1170351941#2" to="1150075890#2" departLane="best" type="motorcycle_motorcycle"/>
    <trip id="motorcycle173" depart="164.16" from="1342403299" to="22857308#3" departLane="best" type="motorcycle_motorcycle" departSpeed="max"/>
    <trip id="motorcycle174" depart="165.11" from="-1116461611" to="-181613140#7" departLane="best" type="motorcycle_motorcycle"/>
    <trip id="motorcycle175" depart="166.06" from="-1124062591#1" to="22857481" departLane="best" type="motorcycle_motorcycle"/>
    <trip id="motorcycle176" depart="167.00" from="1303407347" to="72880842#1" departLane="best" type="motorcycle_motorcycle"/>
    <trip id="motorcycle177" depart="167.95" from="-119866180#3" to="-1009561554" departLane="best" type="motorcycle_motorcycle"/>
    <trip id="motorcycle178" depart="168.90" from="-73030702#3" to="1309532003" departLane="best" type="motorcycle_motorcycle"/>
    <trip id="motorcycle179" depart="169.85" from="-1303407346" to="1411123738#2" departLane="best" type="motorcycle_motorcycle"/>
    <trip id="motorcycle180" depart="170.80" from="-1303405061" to="-1187221752" departLane="best" type="motorcycle_motorcycle" departSpeed="max"/>
    <trip id="motorcycle181" depart="171.75" from="-181613140#7" to="-936975119" departLane="best" type="motorcycle_motorcycle"/>
    <trip id="motorcycle182" depart="172.70" from="-1124062594#1" to="-1124062591#0" departLane="best" type="motorcycle_motorcycle"/>
    <trip id="motorcycle183" depart="173.65" from="1236044649#4" to="376993335#0" departLane="best" type="motorcycle_motorcycle"/>
    <trip id="motorcycle184" depart="174.60" from="73032857#1" to="72878020#0" departLane="best" type="motorcycle_motorcycle"/>
    <trip id="motorcycle185" depart="175.54" from="1341763348" to="214785862#1" departLane="best" type="motorcycle_motorcycle"/>
    <trip id="motorcycle186" depart="176.49" from="788344770" to="73048153#0" departLane="best" type="motorcycle_motorcycle" departSpeed="max"/>
    <trip id="motorcycle187" depart="177.44" from="72878020#0" to="72878713#2" departLane="best" type="motorcycle_motorcycle"/>
    <trip id="motorcycle188" depart="178.39" from="-73030425#5" to="988982708#0" departLane="best" type="motorcycle_motorcycle"/>
    <trip id="motorcycle189" depart="179.34" from="1190311283#0" to="1411123740#1" departLane="best" type="motorcycle_motorcycle"/>
    <trip id="motorcycle190" depart="180.29" from="1303417314" to="439786102#8" departLane="best" type="motorcycle_motorcycle"/>
    <trip id="motorcycle191" depart="181.24" from="-1170351941#3" to="1303407343#2" departLane="best" type="motorcycle_motorcycle"/>
    <trip id="motorcycle192" depart="182.19" from="-183255903" to="1258637582#1" departLane="best" type="motorcycle_motorcycle" departSpeed="max"/>
    <trip id="motorcycle193" depart="183.14" from="125337464#0" to="-22857308#0" departLane="best" type="motorcycle_motorcycle"/>
    <trip id="motorcycle194" depart="184.08" from="474538040#1" to="1303407342#1" departLane="best" type="motorcycle_motorcycle"/>
    <trip id="motorcycle195" depart="185.03" from="83337274#0" to="-697691070" departLane="best" type="motorcycle_motorcycle" departSpeed="max"/>
    <trip id="motorcycle196" depart="185.98" from="-1175869757#0" to="1303407342#1" departLane="best" type="motorcycle_motorcycle"/>
    <trip id="motorcycle197" depart="186.93" from="125337459" to="-73048155#0" departLane="best" type="motorcycle_motorcycle"/>
    <trip id="motorcycle198" depart="187.88" from="183252725#1" to="788752295#1" departLane="best" type="motorcycle_motorcycle"/>
    <trip id="motorcycle199" depart="188.83" from="72878021#1" to="-788344770" departLane="best" type="motorcycle_motorcycle"/>
    <trip id="motorcycle200" depart="189.78" from="-131876116#4" to="-438522296" departLane="best" type="motorcycle_motorcycle"/>
    <trip id="motorcycle201" depart="190.73" from="1170572262#2" to="72879621#0" departLane="best" type="motorcycle_motorcycle"/>
    <trip id="motorcycle202" depart="191.68" from="-214785853#1" to="-72879991#2" departLane="best" type="motorcycle_motorcycle" departSpeed="max"/>
    <trip id="motorcycle203" depart="192.62" from="-22857444#1" to="1170351941#3" departLane="best" type="motorcycle_motorcycle"/>
    <trip id="motorcycle204" depart="193.57" from="72878022#0" to="-73030702#4" departLane="best" type="motorcycle_motorcycle"/>
    <trip id="motorcycle205" depart="194.52" from="-72878890#1" to="1142118518" departLane="best" type="motorcycle_motorcycle"/>
    <trip id="motorcycle206" depart="195.47" from="125337464#5" to="377007973" departLane="best" type="motorcycle_motorcycle"/>
    <trip id="motorcycle207" depart="196.42" from="72879621#3" to="72878022#1" departLane="best" type="motorcycle_motorcycle"/>
    <trip id="motorcycle208" depart="197.37" from="-1330603589" to="439786102#6" departLane="best" type="motorcycle_motorcycle" departSpeed="max"/>
    <trip id="motorcycle209" depart="198.32" from="-1190752092" to="-169205034#2" departLane="best" type="motorcycle_motorcycle" departSpeed="max"/>
    <trip id="motorcycle210" depart="199.27" from="181613140#1" to="202565742#5" departLane="best" type="motorcycle_motorcycle"/>
    <trip id="motorcycle211" depart="200.22" from="22857665#5" to="1170572265#0" departLane="best" type="motorcycle_motorcycle"/>
    <trip id="motorcycle212" depart="201.16" from="181613134" to="1092139662#1" departLane="best" type="motorcycle_motorcycle"/>
    <trip id="motorcycle213" depart="202.11" from="1092139662#5" to="-181613180" departLane="best" type="motorcycle_motorcycle"/>
    <trip id="motorcycle214" depart="203.06" from="474538040#1" to="-72878023#5" departLane="best" type="motorcycle_motorcycle"/>
    <trip id="motorcycle215" depart="204.01" from="-257802532#2" to="439786086#2" departLane="best" type="motorcycle_motorcycle"/>
    <trip id="motorcycle216" depart="204.96" from="1228865283#1" to="1228865283#1" departLane="best" type="motorcycle_motorcycle"/>
    <trip id="motorcycle217" depart="205.91" from="1411123738#2" to="1190311283#1" departLane="best" type="motorcycle_motorcycle"/>
    <trip id="motorcycle218" depart="206.86" from="-1303407342#3" to="1237198320#0" departLane="best" type="motorcycle_motorcycle"/>