<?xml version="1.0" encoding="UTF-8"?>

<!-- generated on 2025-11-08 07:34:07 by Eclipse SUMO polyconvert Version 1.24.0
<polyconvertConfiguration xmlns:xsi="http://www.w3.org/2001/XMLSchema-instance" xsi:noNamespaceSchemaLocation="http://sumo.dlr.de/xsd/polyconvertConfiguration.xsd">

    <input>
        <net-file value="osm.net.xml.gz"/>
        <osm-files value="osm_bbox.osm.xml.gz"/>
        <osm.keep-full-type value="true"/>
        <osm.merge-relations value="1"/>
        <type-file value="${SUMO_HOME}/data/typemap/osmPolyconvert.typ.xml"/>
    </input>

    <output>
        <output-file value="osm.poly.xml.gz"/>
    </output>

    <report>
        <verbose value="true"/>
    </report>

</polyconvertConfiguration>
-->

<additional xmlns:xsi="http://www.w3.org/2001/XMLSchema-instance" xsi:noNamespaceSchemaLocation="http://sumo.dlr.de/xsd/additional_file.xsd">
    <location netOffset="-271462.77,-2113469.66" convBoundary="-6.61,-3.33,2720.38,1768.06" origBoundary="72.827632,19.101678,72.853369,19.117423" projParameter="+proj=utm +zone=43 +ellps=WGS84 +datum=WGS84 +units=m +no_defs"/>

    <poly id="1010994574" type="building.house" color="255,230,230" fill="1" layer="-1.00" shape="231.591421,1543.386887 232.925664,1560.998390 208.685557,1563.513810 207.037642,1546.072293 231.591421,1543.386887"/>
    <poly id="1010994575" type="building.apartments" color="255,230,230" fill="1" layer="-1.00" shape="201.828350,1551.219412 203.591470,1564.374286 169.474293,1569.082987 166.743735,1555.153947 201.828350,1551.219412"/>
    <poly id="1010994576" type="landuse.residential" color="235,235,227" fill="1" layer="-3.00" shape="169.110459,1578.776297 171.791595,1601.442475 210.665369,1594.127965 220.939325,1585.751139 224.243197,1581.424921 220.054336,1578.896922 214.018627,1570.035998 168.587555,1574.807615 169.110459,1578.776297"/>
    <poly id="1010994577" type="building.apartments" color="255,230,230" fill="1" layer="-1.00" shape="215.500698,1406.193999 229.938694,1405.117923 230.982004,1434.060613 217.212055,1434.685485 215.500698,1406.193999"/>
    <poly id="1010994578" type="building.apartments" color="255,230,230" fill="1" layer="-1.00" shape="219.298783,1439.144114 229.233195,1439.020829 229.704325,1458.326124 220.004798,1459.564857 219.298783,1439.144114"/>
    <poly id="1010994579" type="building.apartments" color="255,230,230" fill="1" layer="-1.00" shape="305.367154,1357.044744 336.653076,1355.704402 337.011693,1371.888524 305.723876,1373.073871 305.367154,1357.044744"/>
    <poly id="1010994580" type="building.apartments" color="255,230,230" fill="1" layer="-1.00" shape="351.095898,1314.278747 375.580125,1313.598627 376.486562,1340.859915 371.741569,1341.018414 371.814041,1339.223707 368.499047,1339.264818 368.256896,1335.015831 360.374575,1335.113584 360.357000,1333.696472 356.276102,1333.935322 355.967382,1331.957103 353.876717,1332.270927 353.852139,1330.289184 352.147284,1330.310328 352.006984,1326.635868 350.966226,1326.737359 351.095898,1314.278747"/>
    <poly id="1010994581" type="building.apartments" color="255,230,230" fill="1" layer="-1.00" shape="387.283901,1267.722463 406.500601,1278.534929 402.889836,1286.131409 397.727259,1283.172523 396.428164,1285.358917 393.743399,1283.598399 391.478630,1286.848692 384.593071,1282.449553 386.025955,1280.017895 384.318440,1278.976071 385.718976,1277.330990 381.048817,1274.188836 387.283901,1267.722463"/>
    <poly id="1010994582" type="building.apartments" color="255,230,230" fill="1" layer="-1.00" shape="177.191865,1365.777219 189.324498,1364.674364 193.438762,1387.477774 180.994417,1388.905612 177.191865,1365.777219"/>
    <poly id="1010994583" type="building.apartments" color="255,230,230" fill="1" layer="-1.00" shape="375.575039,1383.634723 386.914403,1387.314251 385.067014,1402.152687 373.068142,1399.610775 375.575039,1383.634723"/>
    <poly id="1010994584" type="building.apartments" color="255,230,230" fill="1" layer="-1.00" shape="842.210447,1565.084745 851.869636,1560.591415 850.243023,1557.577583 859.110067,1552.861532 871.726627,1568.761037 851.211794,1580.574996 842.210447,1565.084745"/>
    <poly id="1010994585" type="building.apartments" color="255,230,230" fill="1" layer="-1.00" shape="920.853776,1080.881196 939.116098,1083.478880 935.924655,1102.021085 918.034089,1098.843018 920.853776,1080.881196"/>
    <poly id="1010994586" type="building.apartments" color="255,230,230" fill="1" layer="-1.00" shape="889.998986,1073.711203 911.702685,1077.971507 907.758203,1096.899511 886.066168,1093.580263 889.998986,1073.711203"/>
    <poly id="1010994587" type="building.apartments" color="255,230,230" fill="1" layer="-1.00" shape="897.225922,1105.710920 910.185440,1109.326442 907.916646,1125.022592 894.023959,1122.548048 897.225922,1105.710920"/>
    <poly id="1010994588" type="building.apartments" color="255,230,230" fill="1" layer="-1.00" shape="880.084964,1101.017709 890.929142,1102.954170 887.892119,1118.659828 877.613910,1116.528129 880.084964,1101.017709"/>
    <poly id="1010994589" type="building.apartments" color="255,230,230" fill="1" layer="-1.00" shape="862.186186,1098.028035 874.182268,1100.337784 871.908844,1115.657522 861.622299,1113.703100 862.186186,1098.028035"/>
    <poly id="1010994590" type="building.apartments" color="255,230,230" fill="1" layer="-1.00" shape="1179.565653,51.110103 1192.030601,51.277287 1189.374251,69.724186 1176.916011,69.246884 1179.565653,51.110103"/>
    <poly id="1010994591" type="building.apartments" color="255,230,230" fill="1" layer="-1.00" shape="1149.783254,44.812079 1168.053370,49.668861 1164.379287,62.414761 1147.086464,59.129326 1149.783254,44.812079"/>
    <poly id="1039429280" type="amenity.grave_yard" color="237,199,199" fill="1" layer="-1.00" shape="1054.708039,1212.952635 1052.480389,1226.876593 1095.060410,1234.067971 1108.266407,1206.543751 1057.526701,1200.859463 1054.708039,1212.952635"/>
    <poly id="1056855952" type="building.yes" color="255,230,230" fill="1" layer="-1.00" shape="103.777201,1613.304461 123.787606,1613.454618 123.098515,1579.148222 103.381223,1578.872621 103.777201,1613.304461"/>
    <poly id="1056855953" type="building.apartments" color="255,230,230" fill="1" layer="-1.00" shape="940.894463,1627.986486 937.692612,1644.823621 939.762631,1645.395944 939.166853,1649.134867 945.252793,1650.177929 945.623240,1647.792682 947.463109,1648.478582 949.319318,1636.873412 976.198855,1640.981099 975.177969,1647.792459 992.278688,1649.275071 992.650531,1647.853146 995.304801,1648.008553 995.479161,1646.788383 1002.131158,1646.794687 1002.158010,1643.860049 1003.190006,1643.902649 1002.919056,1629.655242 1000.783863,1629.770235 1000.698654,1627.135950 986.933800,1627.306211 987.056997,1629.607840 988.151450,1629.594302 988.221019,1635.218450 987.507058,1635.360156 987.477837,1636.401365 983.098909,1635.514339 983.021229,1633.488968 977.935987,1632.511025 977.713803,1634.119336 973.052380,1633.368681 973.038411,1632.239423 967.470316,1631.367111 967.633944,1632.682757 963.204998,1632.006738 963.192123,1630.966049 957.863741,1629.902536 957.826874,1631.176370 953.194965,1630.259262 953.188528,1629.738917 950.329650,1629.209571 950.451801,1628.023264 947.697062,1627.404046 940.894463,1627.986486"/>
    <poly id="1056855954" type="building.apartments" color="255,230,230" fill="1" layer="-1.00" shape="601.740508,1559.182187 601.586315,1564.576589 612.529537,1564.330275 612.489401,1565.338404 615.762255,1565.297855 615.805134,1564.511150 619.026742,1564.581965 619.067564,1563.629192 621.835283,1563.594902 621.905918,1559.951051 622.525990,1559.876932 622.480864,1556.234515 621.744894,1556.298997 621.747360,1547.152771 625.017474,1546.890801 624.966725,1542.794465 618.421009,1542.875560 618.527031,1542.088072 615.477227,1542.291950 615.591021,1547.229043 611.476957,1547.335378 611.525818,1542.783820 606.842789,1542.841841 606.737454,1543.684685 601.326921,1543.640992 601.428236,1547.570608 604.648475,1547.530709 604.562219,1559.257955 601.740508,1559.182187"/>
    <poly id="1056855955" type="building.yes" color="255,230,230" fill="1" layer="-1.00" shape="638.920204,1518.759561 649.740890,1512.867625 642.117737,1499.043454 631.297181,1504.946465 638.920204,1518.759561"/>
    <poly id="1056855956" type="building.apartments" color="255,230,230" fill="1" layer="-1.00" shape="782.490703,1456.302300 788.330632,1462.973378 783.745435,1466.684186 785.360005,1468.723751 778.165406,1474.205303 771.186390,1465.643797 771.975362,1464.759273 770.117786,1462.645208 777.716126,1457.468695 778.775653,1458.883977 782.490703,1456.302300"/>
    <poly id="1056855957" type="building.apartments" color="255,230,230" fill="1" layer="-1.00" shape="787.539679,1450.094357 795.562350,1459.639507 806.725181,1449.070690 798.481379,1439.517201 787.539679,1450.094357"/>
    <poly id="1056855958" type="building.apartments" color="255,230,230" fill="1" layer="-1.00" shape="839.832643,1432.494532 848.404251,1440.471636 861.014436,1428.633712 850.057045,1419.235584 848.163925,1421.052816 846.452891,1419.723103 844.549385,1421.551537 843.292240,1420.326935 840.168421,1423.056301 842.344444,1425.387889 840.335565,1427.206554 842.284313,1429.884214 839.832643,1432.494532"/>
    <poly id="1056855959" type="building.apartments" color="255,230,230" fill="1" layer="-1.00" shape="815.009201,1296.051952 857.793517,1320.602486 869.340737,1298.557487 825.780151,1275.921062 815.009201,1296.051952"/>
    <poly id="1056855960" type="building.yes" color="255,230,230" fill="1" layer="-1.00" shape="918.802148,1263.032820 943.840694,1272.278954 947.524866,1262.090652 922.140394,1252.959519 918.802148,1263.032820"/>
    <poly id="1056855961" type="building.apartments" color="255,230,230" fill="1" layer="-1.00" shape="931.721095,1212.325442 949.655994,1216.543808 947.623363,1226.656315 929.287472,1222.354330 931.721095,1212.325442"/>
    <poly id="1056855962" type="building.yes" color="255,230,230" fill="1" layer="-1.00" shape="935.431846,1182.161389 963.086734,1187.632574 964.970012,1178.208434 937.315111,1172.737245 935.431846,1182.161389"/>
    <poly id="1056855963" type="building.yes" color="255,230,230" fill="1" layer="-1.00" shape="939.953357,1163.082305 951.817893,1164.972958 953.986583,1151.392968 942.414379,1149.310459 939.953357,1163.082305"/>
    <poly id="1056855964" type="building.apartments" color="255,230,230" fill="1" layer="-1.00" shape="787.045412,991.794788 787.035924,998.682223 788.193560,998.667895 788.042084,1001.736952 800.453967,1002.768136 800.325266,1004.275638 802.987279,1004.198402 802.528218,1009.629783 815.454535,1010.554954 816.039314,1004.225117 813.580314,996.892098 812.769421,996.857842 812.768198,992.506224 802.830125,991.499780 793.069151,989.494592 793.078468,990.247431 790.846292,990.186474 790.681387,992.170556 787.045412,991.794788"/>
    <poly id="1056855965" type="building.apartments" color="255,230,230" fill="1" layer="-1.00" shape="748.993140,994.159239 753.392336,1007.724402 781.082318,1010.050224 771.833295,989.879223 761.768437,990.535299 748.993140,994.159239"/>
    <poly id="1056855966" type="building.apartments" color="255,230,230" fill="1" layer="-1.00" shape="759.187179,1014.993978 758.769788,1019.539017 760.309029,1023.993400 760.325611,1025.333010 765.503557,1026.132601 765.678328,1029.197620 770.041819,1029.675107 777.215695,1028.456881 788.163885,1028.587124 788.328351,1025.717219 786.873473,1022.125474 784.904344,1020.356042 785.248074,1015.811916 778.797413,1015.083436 778.812349,1016.290193 759.187179,1014.993978"/>
    <poly id="1056855967" type="building.university" color="255,230,230" fill="1" layer="-1.00" shape="885.195770,765.413901 889.699420,866.564027 907.741010,865.765072 907.928785,870.734458 939.763689,870.318569 938.991185,851.260683 956.813151,850.575222 957.222719,762.828945 885.195770,765.413901"/>
    <poly id="1056855968" type="building.university" color="255,230,230" fill="1" layer="-1.00" shape="1007.373360,736.940641 1022.444522,735.104471 1022.139691,732.583632 1034.614826,731.056386 1034.942072,733.687676 1086.009696,727.475772 1079.644107,675.722508 1048.440664,679.562890 1039.117668,680.641464 1000.946181,685.332086 1007.373360,736.940641"/>
    <poly id="1056855969" type="building.yes" color="255,230,230" fill="1" layer="-1.00" shape="918.186729,447.370240 918.402935,459.747004 949.342070,459.187271 949.104973,446.821841 918.186729,447.370240"/>
    <poly id="1056855970" type="building.apartments" color="255,230,230" fill="1" layer="-1.00" shape="892.985592,477.833247 910.845247,477.612376 910.689169,464.991266 892.829501,465.212135 892.985592,477.833247"/>
    <poly id="1056855971" type="building.apartments" color="255,230,230" fill="1" layer="-1.00" shape="895.229180,440.512161 913.088872,440.291297 912.932797,427.670187 895.073094,427.891050 895.229180,440.512161"/>
    <poly id="1056855972" type="building.apartments" color="255,230,230" fill="1" layer="-1.00" shape="1010.232608,435.214767 1024.376816,435.006719 1024.283928,410.459393 1009.811807,410.538618 1010.232608,435.214767"/>
    <poly id="1056855973" type="building.apartments" color="255,230,230" fill="1" layer="-1.00" shape="1032.355853,435.040973 1046.500059,434.832943 1046.407201,410.285620 1031.934945,410.353756 1032.355853,435.040973"/>
    <poly id="1056855974" type="building.apartments" color="255,230,230" fill="1" layer="-1.00" shape="989.541948,463.573393 1003.696660,463.365197 1003.603877,438.828939 989.131639,438.897111 989.541948,463.573393"/>
    <poly id="1056855975" type="building.apartments" color="255,230,230" fill="1" layer="-1.00" shape="1034.621319,465.042499 1048.765364,464.823397 1048.683166,440.287015 1034.200409,440.355281 1034.621319,465.042499"/>
    <poly id="1056855976" type="building.apartments" color="255,230,230" fill="1" layer="-1.00" shape="988.320705,362.227742 988.472616,374.516712 1010.864096,373.896673 1010.494062,361.842929 988.320705,362.227742"/>
    <poly id="1060219318" type="building.yes" color="255,230,230" fill="1" layer="-1.00" shape="1316.214484,125.249706 1331.846270,124.447776 1332.975846,146.036887 1317.333554,146.838948 1316.214484,125.249706"/>
    <poly id="1068670064" type="building.apartments" color="255,230,230" fill="1" layer="-1.00" shape="866.559733,1513.560344 876.846059,1529.123288 886.827622,1522.610731 876.530640,1507.036841 866.559733,1513.560344"/>
    <poly id="1068670065" type="building.apartments" color="255,230,230" fill="1" layer="-1.00" shape="213.231592,1666.900466 220.238256,1666.647408 221.973160,1674.985918 221.931877,1680.987945 213.238693,1681.040478 213.231592,1666.900466"/>
    <poly id="1068670066" type="building.apartments" color="255,230,230" fill="1" layer="-1.00" shape="973.788798,1432.531274 971.178980,1446.183161 974.016974,1446.723845 971.654229,1459.077153 980.895984,1460.823079 985.879084,1434.817759 973.788798,1432.531274"/>
    <poly id="1068670067" type="building.apartments" color="255,230,230" fill="1" layer="-1.00" shape="965.219359,1492.796070 986.373747,1471.407407 978.873328,1464.081369 957.718801,1485.458970 965.219359,1492.796070"/>
    <poly id="1068670068" type="building.apartments" color="255,230,230" fill="1" layer="-1.00" shape="1046.326954,1240.815871 1042.805251,1252.231223 1047.612245,1256.235522 1046.245739,1260.637263 1026.668483,1254.678536 1029.896621,1244.208001 1033.193053,1245.219162 1034.245641,1241.817857 1037.774418,1242.892582 1039.089948,1238.624345 1046.326954,1240.815871"/>
    <poly id="1068670069" type="building.apartments" color="255,230,230" fill="1" layer="-1.00" shape="1028.214387,1261.380637 1037.376847,1264.367741 1032.831798,1278.143193 1023.669344,1275.156092 1028.214387,1261.380637"/>
    <poly id="1111213263" type="building.yes" color="255,230,230" fill="1" layer="-1.00" shape="84.121557,1645.958965 84.319471,1631.384552 106.721062,1631.693232 106.512607,1646.267774 84.121557,1645.958965"/>
    <poly id="1123366924" type="landuse.residential" color="235,235,227" fill="1" layer="-3.00" shape="2387.355960,1167.381484 2426.893441,1153.165380 2446.318989,1190.507575 2435.678737,1194.004436 2435.064440,1212.536689 2388.117016,1229.302015 2387.355960,1167.381484"/>
    <poly id="1123412922" type="natural.wetland" color="181,209,209" fill="1" layer="-4.00" shape="940.958544,1706.326141 940.708558,1686.121273 787.804022,1694.192380"/>
    <poly id="1123427069" type="landuse.recreation_ground" color="194,194,130" fill="1" layer="-3.00" shape="1568.103898,664.897795 1588.880143,644.289792 1627.275849,633.020409 1633.890636,630.835028 1645.065523,690.324261 1587.539968,696.082722 1584.310855,686.024148 1575.728087,688.233818 1568.103898,664.897795"/>
    <poly id="1123427069#1" type="tourism.aquarium" color="207,245,201" fill="1" layer="-2.00" shape="1568.103898,664.897795 1588.880143,644.289792 1627.275849,633.020409 1633.890636,630.835028 1645.065523,690.324261 1587.539968,696.082722 1584.310855,686.024148 1575.728087,688.233818 1568.103898,664.897795"/>
    <poly id="1123427070" type="natural.water" color="181,209,209" fill="1" layer="-4.00" shape="1634.966738,676.286657 1632.847623,664.907803 1623.259852,667.561679 1622.574911,670.914108 1620.875016,673.902575 1618.335392,676.225956 1615.195226,677.648772 1611.768602,678.034278 1608.392019,677.356178 1605.381881,675.665937 1603.056230,673.147869 1601.617757,670.020931 1601.228416,666.615311 1601.913354,663.262880 1603.613247,660.274411 1606.152872,657.951028 1609.293041,656.528211 1612.719669,656.142705 1616.096256,656.820806 1619.095872,658.511179 1621.432045,661.029119 1631.208708,658.328623 1629.636743,652.911261 1631.894240,652.462663 1626.551439,642.563016 1619.295287,641.390178 1606.620389,643.794230 1593.404904,648.452735 1590.345204,652.133413 1588.189822,660.863210 1588.082200,674.329059 1591.058424,686.926422 1594.495644,690.814882 1598.459378,692.161179 1605.236890,692.077610 1615.389372,690.834079 1624.391330,688.475313 1631.113564,683.907953 1634.966738,676.286657"/>
    <poly id="1123427071" type="building.aquarium" color="255,230,230" fill="1" layer="-1.00" shape="1609.293041,656.528211 1606.152872,657.951028 1603.613247,660.274411 1601.913354,663.262880 1601.228416,666.615311 1601.617757,670.020931 1603.056230,673.147869 1605.381881,675.665937 1608.392019,677.356178 1611.768602,678.034278 1615.195226,677.648772 1618.335392,676.225956 1620.875016,673.902575 1622.574911,670.914108 1623.259852,667.561679 1632.847623,664.907803 1638.617044,663.308630 1636.789379,656.787141 1631.208708,658.328623 1621.432045,661.029119 1619.095872,658.511179 1616.096256,656.820806 1612.719669,656.142705 1609.293041,656.528211"/>
    <poly id="1123427074" type="leisure.park" color="207,245,201" fill="1" layer="-2.00" shape="1508.625827,421.055321 1515.070272,462.233093 1561.234863,451.000671 1552.278478,411.824827 1508.625827,421.055321"/>
    <poly id="1123427080" type="landuse.railway" color="194,194,130" fill="1" layer="-3.00" shape="1778.991224,68.885842 1720.361875,76.628206 1778.991224,68.885842"/>
    <poly id="1123427091" type="landuse.commercial" color="209,209,204" fill="1" layer="-3.00" shape="1894.217604,782.535656 1840.683030,492.733843 1934.792946,478.110523 1939.756148,536.701895 2026.340893,576.040676 2064.493715,579.225197 2083.785773,678.332660 2011.227620,724.125645 2014.937540,750.178500 1961.705169,760.090614 1963.118013,783.370336 1894.217604,782.535656"/>
    <poly id="1126013369" type="landuse.hospital" color="194,194,130" fill="1" layer="-3.00" shape="942.123014,627.019008 960.240413,639.993809 964.455914,749.374581 747.051365,750.547159 745.704580,629.825396 942.123014,627.019008"/>
    <poly id="1170351942" type="landuse.recreation_ground" color="194,194,130" fill="1" layer="-3.00" shape="510.591488,1376.590494 586.062472,1361.625934 566.074508,1297.894507 518.758525,1306.896220 504.077823,1307.078165 496.230159,1311.671019 507.701688,1371.023432 510.591488,1376.590494"/>
    <poly id="1170351943" type="landuse.industrial" color="209,209,204" fill="1" layer="-3.00" shape="635.829190,912.292428 640.967819,916.713302 644.531153,953.718987 266.116146,1172.802548 262.170504,1127.950905 267.135303,1118.355550 635.829190,912.292428"/>
    <poly id="1170351944" type="landuse.residential" color="235,235,227" fill="1" layer="-3.00" shape="550.763254,631.231476 261.422595,634.895331 253.061979,643.979142 258.738785,1101.617840 268.615761,1107.031758 555.715304,945.163548 558.530715,939.625451 555.618782,635.733353 550.763254,631.231476"/>
    <poly id="1170351945" type="landuse.residential" color="235,235,227" fill="1" layer="-3.00" shape="572.366348,935.777860 732.125029,845.714896 735.609266,628.887348 567.980683,631.007138 564.652096,635.909356 567.445656,930.258089 572.366348,935.777860"/>
    <poly id="1170351946" type="landuse.residential" color="235,235,227" fill="1" layer="-3.00" shape="957.795336,334.967305 960.890729,604.907007 564.901712,610.172917 558.950663,342.150361 566.307912,336.168481 952.778896,333.623074 957.795336,334.967305"/>
    <poly id="1170351947" type="landuse.residential" color="235,235,227" fill="1" layer="-3.00" shape="554.450225,610.224864 427.411607,610.868769 428.377163,483.241890 551.424020,479.779663 554.450225,610.224864"/>
    <poly id="1170351948" type="landuse.residential" color="235,235,227" fill="1" layer="-3.00" shape="414.992909,611.011612 257.201115,612.779764 254.865221,606.906885 258.323446,544.567916 268.269445,503.751700 301.713319,423.357525 308.435249,418.778588 414.177253,476.408740 414.992909,611.011612"/>
    <poly id="1170351949" type="amenity.parking" color="184,184,179" fill="1" layer="-1.00" shape="411.284890,463.002113 389.293572,450.895197 390.072942,445.836304 410.539428,411.345306 416.679213,405.655266 418.980085,408.705012 414.491494,456.750488 411.284890,463.002113"/>
    <poly id="1170351951" type="amenity.school" color="237,199,199" fill="1" layer="-2.00" shape="492.221941,350.273923 512.190871,343.571067 541.200027,338.439339 546.311125,340.623828 550.432335,467.700374 425.677307,470.929091 425.435449,405.546754 430.098853,394.537889 464.744742,365.208389 492.221941,350.273923"/>
    <poly id="1170351962" type="landuse.recreation_ground" color="194,194,130" fill="1" layer="-3.00" shape="25.064954,1512.975917 25.520178,1610.633394 29.948417,1615.483691 60.762705,1614.336925 59.987851,1512.962939 25.064954,1512.975917"/>
    <poly id="1170351963" type="amenity.college" color="237,199,199" fill="1" layer="-2.00" shape="865.728306,919.822015 947.227471,935.090992 953.574728,900.221614 873.769787,884.931633 750.697571,863.998824 735.753325,865.025342 659.681513,900.492345 656.937436,906.693910 664.672298,938.875534 725.359994,914.826852 773.283575,908.907608 803.785364,910.490017 865.728306,919.822015"/>
    <poly id="1170351964" type="amenity.college" color="237,199,199" fill="1" layer="-2.00" shape="982.079680,602.397240 1079.204746,595.881738 1101.319565,730.475546 995.965910,743.946835 988.293331,671.636394 982.079680,602.397240"/>
    <poly id="1170351965" type="landuse.industrial" color="209,209,204" fill="1" layer="-3.00" shape="1078.899303,281.549991 1076.522807,340.520027 1076.814061,364.090483 1097.477100,505.556311 1165.121002,496.582063 1163.987874,450.012684 1221.022073,450.426607 1221.413569,390.927506 1160.411655,388.868429 1159.195283,359.418668 1216.014925,365.449179 1233.191250,361.029401 1223.246523,287.905503 1131.384508,279.218481 1081.047678,272.266561 1078.899303,281.549991"/>
    <poly id="1170351966" type="amenity.university" color="237,199,199" fill="1" layer="-2.00" shape="890.356363,148.614792 898.752150,142.332331 935.409151,139.354495 945.627773,143.435842 950.884622,157.411212 953.947966,177.016554 956.741727,242.931832 891.819674,243.967077 889.060538,157.887711 890.356363,148.614792"/>
    <poly id="1170351967" type="amenity.college" color="237,199,199" fill="1" layer="-2.00" shape="1068.842392,84.389672 1010.698287,108.394326 1005.400186,114.073731 996.633886,135.519425 989.960144,144.017265 981.862313,151.414355 979.728047,160.985519 980.705896,217.101631 1052.682229,216.212067 1068.842392,84.389672"/>
    <poly id="1170351968" type="leisure.sports_centre" color="207,245,201" fill="1" layer="-2.00" shape="908.593984,994.288146 996.437767,1010.253917 997.150952,976.849403 913.835631,961.945954 908.593984,994.288146"/>
    <poly id="1170351968#1" type="sport.tennis;squash;swimming" color="79,230,125" fill="1" layer="-2.00" shape="908.593984,994.288146 996.437767,1010.253917 997.150952,976.849403 913.835631,961.945954 908.593984,994.288146"/>
    <poly id="1170351969" type="natural.water" color="181,209,209" fill="1" layer="-4.00" shape="986.333772,967.737336 1022.762786,972.845476 1020.352225,956.653567 985.004684,951.332744 986.333772,967.737336"/>
    <poly id="1170351970" type="natural.water" color="181,209,209" fill="1" layer="-4.00" shape="1022.762786,972.845476 1111.850838,982.185930 1111.427950,970.963302 1020.352225,956.653567 1022.762786,972.845476"/>
    <poly id="1170351971" type="amenity.college" color="237,199,199" fill="1" layer="-2.00" shape="1012.717943,911.271797 1122.241307,932.927356 1123.581763,971.554980 1111.427950,970.963302 1020.352225,956.653567 1012.717943,911.271797"/>
    <poly id="1170351975" type="landuse.retail" color="194,194,130" fill="1" layer="-3.00" shape="513.687995,168.711935 523.745112,205.637181 306.178591,262.235995 297.773609,221.913106 419.917748,188.775019 513.687995,168.711935"/>
    <poly id="1170351976" type="landuse.residential" color="235,235,227" fill="1" layer="-3.00" shape="185.720198,292.906897 1.970982,294.046660 177.301218,251.476917 185.720198,292.906897"/>
    <poly id="1170351977" type="landuse.residential" color="235,235,227" fill="1" layer="-3.00" shape="226.070963,607.264041 219.373204,621.420771 204.443643,320.722279 220.369632,330.069573 226.070963,607.264041"/>
    <poly id="1170351978" type="landuse.residential" color="235,235,227" fill="1" layer="-3.00" shape="558.503897,322.224736 556.595092,236.090411 564.661473,226.168886 874.267916,149.090563 878.264812,244.178994 891.819674,243.967077 956.741727,242.931832 957.618481,319.810776 953.208555,322.400976 562.204732,324.426694 558.503897,322.224736"/>
    <poly id="1170351979" type="landuse.residential" color="235,235,227" fill="1" layer="-3.00" shape="74.232791,1066.580945 143.588616,1149.907266 174.313269,1168.615609 236.150517,1127.033558 224.184279,637.605024"/>
    <poly id="1170351980" type="landuse.education" color="194,194,130" fill="1" layer="-3.00" shape="747.441193,759.932117 960.897113,762.052700 965.190478,766.218364 974.863025,887.047422 747.090229,845.529655 747.441193,759.932117"/>
    <poly id="120515554" type="building.university" color="255,230,230" fill="1" layer="-1.00" shape="451.153058,1160.797012 479.158425,1145.268965 482.680708,1149.211547 500.139939,1156.646525 504.210270,1154.702620 518.441208,1184.467326 510.010323,1189.565675 508.926750,1186.212948 505.646403,1188.202428 503.196661,1182.474890 500.179960,1184.505395 491.100005,1166.956683 486.804370,1170.254276 484.659622,1166.206038 476.125925,1170.652376 477.268394,1173.661112 467.484144,1178.266902 464.648024,1172.787761 458.641350,1175.608290 451.153058,1160.797012"/>
    <poly id="1219692635" type="building.yes" color="255,230,230" fill="1" layer="-1.00" shape="1699.840461,490.416377 1718.936616,487.191398 1716.747191,474.373945 1697.640635,477.610125 1699.840461,490.416377"/>
    <poly id="1223499763" type="building.apartments" color="255,230,230" fill="1" layer="-1.00" shape="2610.616726,269.408762 2610.231468,259.459113 2613.945315,259.313879 2613.684064,252.607015 2627.035027,252.088841 2627.681521,268.745353 2610.616726,269.408762"/>
    <poly id="1227534714" type="building.apartments" color="255,230,230" fill="1" layer="-1.00" shape="1660.172023,1609.014241 1632.029436,1608.298354 1632.207861,1601.431013 1637.894737,1596.577418 1655.114571,1596.630783 1660.377806,1600.950701 1660.172023,1609.014241"/>
    <poly id="1227534715" type="building.yes" color="255,230,230" fill="1" layer="-1.00" shape="1584.138196,1523.694937 1585.038711,1507.960440 1589.216589,1507.908900 1594.442383,1516.016167 1611.352859,1503.782501 1593.498202,1477.018314 1562.778790,1489.267337 1563.763060,1531.509036 1565.158876,1531.181776 1565.359477,1535.497697 1582.175716,1527.572485 1584.138196,1523.694937"/>
    <poly id="1227534715#1" type="shop.department_store" color="237,199,255" fill="1" layer="-1.00" shape="1584.138196,1523.694937 1585.038711,1507.960440 1589.216589,1507.908900 1594.442383,1516.016167 1611.352859,1503.782501 1593.498202,1477.018314 1562.778790,1489.267337 1563.763060,1531.509036 1565.158876,1531.181776 1565.359477,1535.497697 1582.175716,1527.572485 1584.138196,1523.694937"/>
    <poly id="1227534716" type="building.apartments" color="255,230,230" fill="1" layer="-1.00" shape="1558.564497,1459.068416 1569.770067,1450.226943 1574.602289,1456.290592 1563.292440,1465.210858 1567.621990,1470.627412 1584.935961,1456.971427 1570.546858,1438.967386 1553.347545,1452.533386 1558.564497,1459.068416"/>
    <poly id="1281399218" type="leisure.playground" color="207,245,201" fill="1" layer="-2.00" shape="26.118024,577.268610 48.926677,577.195836 49.152480,545.358434 25.304497,545.654491 26.118024,577.268610"/>
    <poly id="1281399219" type="building.construction" color="255,230,230" fill="1" layer="-1.00" shape="34.719710,529.105413 54.174007,528.454213 54.056585,502.035723 34.189340,502.492735 34.719710,529.105413"/>
    <poly id="1281399220" type="building.house" color="255,230,230" fill="1" layer="-1.00" shape="19.779435,467.736613 20.960244,489.934201 7.820405,491.348574 6.094043,468.449092 19.779435,467.736613"/>
    <poly id="1281399221" type="building.house" color="255,230,230" fill="1" layer="-1.00" shape="113.583605,682.084138 140.493578,682.569570 140.707142,670.940376 113.786765,670.466143 113.583605,682.084138"/>